66066
  -OEChem-09121605063D

 76 79  0     1  0  0  0  0  0999 V2000
   -5.9316   -2.8101    0.0475 O   0  0  0  0  0  0  0  0  0  0  0  0
    0.7789    1.1429   -0.3424 C   0  0  1  0  0  0  0  0  0  0  0  0
    0.0684    0.6427    0.9343 C   0  0  2  0  0  0  0  0  0  0  0  0
   -1.4547    0.8009    0.8710 C   0  0  1  0  0  0  0  0  0  0  0  0
   -1.9903   -0.0221   -0.3459 C   0  0  1  0  0  0  0  0  0  0  0  0
   -3.5599    0.0432   -0.4542 C   0  0  2  0  0  0  0  0  0  0  0  0
    2.2477    0.8947    0.0797 C   0  0  2  0  0  0  0  0  0  0  0  0
    0.2925    0.2836   -1.5179 C   0  0  0  0  0  0  0  0  0  0  0  0
   -4.1418   -0.4560    0.9070 C   0  0  1  0  0  0  0  0  0  0  0  0
   -1.2403    0.3266   -1.6588 C   0  0  0  0  0  0  0  0  0  0  0  0
    0.8386    1.3213    2.0630 C   0  0  0  0  0  0  0  0  0  0  0  0
   -2.1209    0.3562    2.1807 C   0  0  0  0  0  0  0  0  0  0  0  0
    2.2904    1.3686    1.5515 C   0  0  0  0  0  0  0  0  0  0  0  0
   -3.6453    0.3767    2.0954 C   0  0  0  0  0  0  0  0  0  0  0  0
   -4.0721   -0.9148   -1.5663 C   0  0  0  0  0  0  0  0  0  0  0  0
    0.5351    2.6403   -0.6572 C   0  0  0  0  0  0  0  0  0  0  0  0
    3.3234    1.5406   -0.7817 C   0  0  1  0  0  0  0  0  0  0  0  0
   -5.6764   -0.5596    0.9026 C   0  0  0  0  0  0  0  0  0  0  0  0
   -4.0279    1.4817   -0.7945 C   0  0  0  0  0  0  0  0  0  0  0  0
   -5.5983   -1.0676   -1.5950 C   0  0  0  0  0  0  0  0  0  0  0  0
   -6.1954   -1.4365   -0.2385 C   0  0  1  0  0  0  0  0  0  0  0  0
    4.7519    1.2182   -0.2951 C   0  0  0  0  0  0  0  0  0  0  0  0
    3.1724    1.0865   -2.2391 C   0  0  0  0  0  0  0  0  0  0  0  0
    5.1128   -0.2707   -0.2071 C   0  0  0  0  0  0  0  0  0  0  0  0
    6.5158   -0.5273    0.3524 C   0  0  0  0  0  0  0  0  0  0  0  0
    6.9041   -2.0186    0.3737 C   0  0  0  0  0  0  0  0  0  0  0  0
    6.8277   -2.6653   -1.0104 C   0  0  0  0  0  0  0  0  0  0  0  0
    5.9952   -2.7762    1.3453 C   0  0  0  0  0  0  0  0  0  0  0  0
    0.2658   -0.4375    1.0411 H   0  0  0  0  0  0  0  0  0  0  0  0
   -1.6936    1.8601    0.7343 H   0  0  0  0  0  0  0  0  0  0  0  0
   -1.7389   -1.0753   -0.1413 H   0  0  0  0  0  0  0  0  0  0  0  0
    2.3966   -0.1938    0.0815 H   0  0  0  0  0  0  0  0  0  0  0  0
    0.6017   -0.7602   -1.3786 H   0  0  0  0  0  0  0  0  0  0  0  0
    0.6961    0.6056   -2.4781 H   0  0  0  0  0  0  0  0  0  0  0  0
   -3.7672   -1.4789    1.0676 H   0  0  0  0  0  0  0  0  0  0  0  0
   -1.5383    1.3167   -2.0173 H   0  0  0  0  0  0  0  0  0  0  0  0
   -1.5197   -0.3830   -2.4457 H   0  0  0  0  0  0  0  0  0  0  0  0
    0.7668    0.7623    3.0017 H   0  0  0  0  0  0  0  0  0  0  0  0
    0.4663    2.3345    2.2512 H   0  0  0  0  0  0  0  0  0  0  0  0
   -1.8048    1.0071    3.0042 H   0  0  0  0  0  0  0  0  0  0  0  0
   -1.7912   -0.6588    2.4381 H   0  0  0  0  0  0  0  0  0  0  0  0
    2.6797    2.3885    1.6483 H   0  0  0  0  0  0  0  0  0  0  0  0
    2.9345    0.7132    2.1480 H   0  0  0  0  0  0  0  0  0  0  0  0
   -4.0538   -0.0284    3.0293 H   0  0  0  0  0  0  0  0  0  0  0  0
   -4.0031    1.4101    2.0245 H   0  0  0  0  0  0  0  0  0  0  0  0
   -3.6259   -1.9081   -1.4247 H   0  0  0  0  0  0  0  0  0  0  0  0
   -3.7488   -0.5677   -2.5547 H   0  0  0  0  0  0  0  0  0  0  0  0
   -0.5265    2.8805   -0.7598 H   0  0  0  0  0  0  0  0  0  0  0  0
    0.9306    3.2998    0.1218 H   0  0  0  0  0  0  0  0  0  0  0  0
    1.0054    2.9374   -1.5992 H   0  0  0  0  0  0  0  0  0  0  0  0
    3.2286    2.6333   -0.7569 H   0  0  0  0  0  0  0  0  0  0  0  0
   -6.0058   -0.9793    1.8617 H   0  0  0  0  0  0  0  0  0  0  0  0
   -6.1216    0.4392    0.8292 H   0  0  0  0  0  0  0  0  0  0  0  0
   -5.1171    1.5780   -0.7894 H   0  0  0  0  0  0  0  0  0  0  0  0
   -3.6483    2.2274   -0.0918 H   0  0  0  0  0  0  0  0  0  0  0  0
   -3.6973    1.7795   -1.7950 H   0  0  0  0  0  0  0  0  0  0  0  0
   -6.0498   -0.1330   -1.9470 H   0  0  0  0  0  0  0  0  0  0  0  0
   -5.8533   -1.8387   -2.3322 H   0  0  0  0  0  0  0  0  0  0  0  0
   -7.2857   -1.3405   -0.2980 H   0  0  0  0  0  0  0  0  0  0  0  0
    5.4748    1.7175   -0.9538 H   0  0  0  0  0  0  0  0  0  0  0  0
    4.8986    1.6703    0.6941 H   0  0  0  0  0  0  0  0  0  0  0  0
    2.9673    0.0150   -2.3265 H   0  0  0  0  0  0  0  0  0  0  0  0
    4.0965    1.2803   -2.7974 H   0  0  0  0  0  0  0  0  0  0  0  0
    2.4053    1.6585   -2.7643 H   0  0  0  0  0  0  0  0  0  0  0  0
    4.3892   -0.7789    0.4345 H   0  0  0  0  0  0  0  0  0  0  0  0
    5.0235   -0.7036   -1.2078 H   0  0  0  0  0  0  0  0  0  0  0  0
   -6.3597   -3.0219    0.8944 H   0  0  0  0  0  0  0  0  0  0  0  0
    6.5883   -0.1132    1.3657 H   0  0  0  0  0  0  0  0  0  0  0  0
    7.2470    0.0163   -0.2593 H   0  0  0  0  0  0  0  0  0  0  0  0
    7.9371   -2.0906    0.7361 H   0  0  0  0  0  0  0  0  0  0  0  0
    7.3917   -2.0814   -1.7450 H   0  0  0  0  0  0  0  0  0  0  0  0
    7.2628   -3.6705   -0.9809 H   0  0  0  0  0  0  0  0  0  0  0  0
    5.7985   -2.7703   -1.3674 H   0  0  0  0  0  0  0  0  0  0  0  0
    5.9821   -2.2953    2.3290 H   0  0  0  0  0  0  0  0  0  0  0  0
    6.3633   -3.7990    1.4841 H   0  0  0  0  0  0  0  0  0  0  0  0
    4.9650   -2.8509    0.9836 H   0  0  0  0  0  0  0  0  0  0  0  0
  1 21  1  0  0  0  0
  1 67  1  0  0  0  0
  2  3  1  0  0  0  0
  2  7  1  0  0  0  0
  2  8  1  0  0  0  0
  2 16  1  0  0  0  0
  3  4  1  0  0  0  0
  3 11  1  0  0  0  0
  3 29  1  0  0  0  0
  4  5  1  0  0  0  0
  4 12  1  0  0  0  0
  4 30  1  0  0  0  0
  5  6  1  0  0  0  0
  5 10  1  0  0  0  0
  5 31  1  0  0  0  0
  6  9  1  0  0  0  0
  6 15  1  0  0  0  0
  6 19  1  0  0  0  0
  7 13  1  0  0  0  0
  7 17  1  0  0  0  0
  7 32  1  0  0  0  0
  8 10  1  0  0  0  0
  8 33  1  0  0  0  0
  8 34  1  0  0  0  0
  9 14  1  0  0  0  0
  9 18  1  0  0  0  0
  9 35  1  0  0  0  0
 10 36  1  0  0  0  0
 10 37  1  0  0  0  0
 11 13  1  0  0  0  0
 11 38  1  0  0  0  0
 11 39  1  0  0  0  0
 12 14  1  0  0  0  0
 12 40  1  0  0  0  0
 12 41  1  0  0  0  0
 13 42  1  0  0  0  0
 13 43  1  0  0  0  0
 14 44  1  0  0  0  0
 14 45  1  0  0  0  0
 15 20  1  0  0  0  0
 15 46  1  0  0  0  0
 15 47  1  0  0  0  0
 16 48  1  0  0  0  0
 16 49  1  0  0  0  0
 16 50  1  0  0  0  0
 17 22  1  0  0  0  0
 17 23  1  0  0  0  0
 17 51  1  0  0  0  0
 18 21  1  0  0  0  0
 18 52  1  0  0  0  0
 18 53  1  0  0  0  0
 19 54  1  0  0  0  0
 19 55  1  0  0  0  0
 19 56  1  0  0  0  0
 20 21  1  0  0  0  0
 20 57  1  0  0  0  0
 20 58  1  0  0  0  0
 21 59  1  0  0  0  0
 22 24  1  0  0  0  0
 22 60  1  0  0  0  0
 22 61  1  0  0  0  0
 23 62  1  0  0  0  0
 23 63  1  0  0  0  0
 23 64  1  0  0  0  0
 24 25  1  0  0  0  0
 24 65  1  0  0  0  0
 24 66  1  0  0  0  0
 25 26  1  0  0  0  0
 25 68  1  0  0  0  0
 25 69  1  0  0  0  0
 26 27  1  0  0  0  0
 26 28  1  0  0  0  0
 26 70  1  0  0  0  0
 27 71  1  0  0  0  0
 27 72  1  0  0  0  0
 27 73  1  0  0  0  0
 28 74  1  0  0  0  0
 28 75  1  0  0  0  0
 28 76  1  0  0  0  0
M  END
> <PUBCHEM_COMPOUND_CID>
66066

> <PUBCHEM_CONFORMER_RMSD>
0.8

> <PUBCHEM_CONFORMER_DIVERSEORDER>
1
5
3
2
4
6

> <PUBCHEM_MMFF94_PARTIAL_CHARGES>
3
1 -0.68
21 0.28
67 0.4

> <PUBCHEM_EFFECTIVE_ROTOR_COUNT>
7.2

> <PUBCHEM_PHARMACOPHORE_FEATURES>
9
1 1 acceptor
1 1 donor
1 23 hydrophobe
3 26 27 28 hydrophobe
5 17 22 24 25 26 hydrophobe
5 2 3 7 11 13 rings
6 2 3 4 5 8 10 rings
6 4 5 6 9 12 14 rings
6 6 9 15 18 20 21 rings

> <PUBCHEM_HEAVY_ATOM_COUNT>
28

> <PUBCHEM_ATOM_DEF_STEREO_COUNT>
9

> <PUBCHEM_ATOM_UDEF_STEREO_COUNT>
0

> <PUBCHEM_BOND_DEF_STEREO_COUNT>
0

> <PUBCHEM_BOND_UDEF_STEREO_COUNT>
0

> <PUBCHEM_ISOTOPIC_ATOM_COUNT>
0

> <PUBCHEM_COMPONENT_COUNT>
1

> <PUBCHEM_CACTVS_TAUTO_COUNT>
1

> <PUBCHEM_CONFORMER_ID>
0001021200000001

> <PUBCHEM_MMFF94_ENERGY>
90.4468

> <PUBCHEM_FEATURE_SELFOVERLAP>
45.765

> <PUBCHEM_SHAPE_FINGERPRINT>
10 15 15267338535790005362
10319926 262 16272210786156717986
10670039 82 14273448155035702726
10693767 8 17749097873551529906
11991303 11 17464253829809880508
12011746 2 16153701068308786049
12035758 1 15123509220199307522
12166972 35 18411138048103133180
12236239 1 18202007659091931649
12422481 6 15410608156537959416
12596602 18 17917710218984469394
12760667 363 18261115128189996032
12838862 33 16128380342730257003
12954195 1 16950558827320574148
13140716 1 15983685852769044965
13533116 47 18412263956900454504
1361 4 18337673147616629974
13668630 136 18261110789777525162
13782708 43 18408321103085472942
14251764 18 17632295722361145092
14251764 30 18334009497510071758
14931854 50 16081354285786111239
15052358 14 16008749104512809016
15064981 194 14129064725405050895
15183329 4 15574713574081653064
15196674 1 15141224569343302945
15475509 35 18273207613075968618
16728300 4 17774439365497207054
16994733 274 8790887367348329750
17349148 13 17916879026912145693
17980427 23 13110951050538241408
1813 80 18272945929066315324
19958102 18 16443345330704460826
2026 5 18334010566768135610
20567600 247 18333447630184211274
21267235 1 15575003905360315969
21279426 13 15791736338296545148
21307412 95 17167872932927541346
21344244 181 17675927624774164874
21637258 2 18411415111968764552
21641784 216 14273725223244190294
21682296 61 18187367588911795126
21792934 111 15984835770037885537
22061861 79 17821731637182767746
2215653 11 17095243618638846474
22393880 68 15719674367454905673
23522609 53 17913801497934881841
23559900 14 16081652317408463869
23569914 152 16956995273657954590
23569943 247 18115582639092337418
2748736 6 9871454406158014918
2838139 119 8502367824634950406
34797466 226 16805610321173717300
350125 39 16199880573702656745
392239 28 13901902302416392594
397830 11 12319445641057838756
4058900 60 12396290431197985712
4258327 124 7853572397084107523
437815 12 17821730524844475196
465052 167 18202003257034984604
474113 269 17774713187100379775
5104073 3 15338575829338907742
513202 73 18337391539258192644
531348 171 18335417924945514277
5364581 5 14045158818950081898
59682541 52 17312822667624642934
59755656 215 16008741412178967802
6608658 132 12901539105310084174

> <PUBCHEM_SHAPE_MULTIPOLES>
570.36
17.56
2.45
2.04
12.26
1.24
-0.28
16.52
0.71
2.67
0.09
-0.73
-0.31
-1.1

> <PUBCHEM_SHAPE_SELFOVERLAP>
1174.393

> <PUBCHEM_SHAPE_VOLUME>
327.2

> <PUBCHEM_COORDINATE_TYPE>
2
5
10

$$$$
