22833605
  -OEChem-09121611263D

 34 34  0     1  0  0  0  0  0999 V2000
    2.4212    0.2178   -0.1913 O   0  0  0  0  0  0  0  0  0  0  0  0
   -0.9216   -0.7926   -0.2638 O   0  0  0  0  0  0  0  0  0  0  0  0
   -0.6768    1.4132    1.4040 O   0  0  0  0  0  0  0  0  0  0  0  0
    3.1786   -1.9069   -0.7697 O   0  0  0  0  0  0  0  0  0  0  0  0
    2.7081    2.8896   -0.7503 O   0  0  0  0  0  0  0  0  0  0  0  0
   -4.0354    0.9905   -0.0890 O   0  0  0  0  0  0  0  0  0  0  0  0
   -2.1039    1.4270   -1.1985 O   0  0  0  0  0  0  0  0  0  0  0  0
    0.7143   -3.0712    0.1395 N   0  0  0  0  0  0  0  0  0  0  0  0
   -0.0417   -0.8407    0.8634 C   0  0  2  0  0  0  0  0  0  0  0  0
    0.4505    0.5760    1.1797 C   0  0  1  0  0  0  0  0  0  0  0  0
    1.1612   -1.7342    0.5323 C   0  0  2  0  0  0  0  0  0  0  0  0
    1.3230    1.1082    0.0338 C   0  0  1  0  0  0  0  0  0  0  0  0
    2.0179   -1.0996   -0.5762 C   0  0  1  0  0  0  0  0  0  0  0  0
    1.9130    2.4795    0.3472 C   0  0  0  0  0  0  0  0  0  0  0  0
   -2.2649   -0.5927    0.1432 C   0  0  2  0  0  0  0  0  0  0  0  0
   -3.0852   -1.7719   -0.3499 C   0  0  0  0  0  0  0  0  0  0  0  0
   -2.7584    0.7081   -0.4545 C   0  0  0  0  0  0  0  0  0  0  0  0
   -0.5559   -1.2695    1.7347 H   0  0  0  0  0  0  0  0  0  0  0  0
    1.0453    0.5478    2.1017 H   0  0  0  0  0  0  0  0  0  0  0  0
    1.7790   -1.8361    1.4345 H   0  0  0  0  0  0  0  0  0  0  0  0
    0.7489    1.1930   -0.8981 H   0  0  0  0  0  0  0  0  0  0  0  0
    1.4744   -1.0503   -1.5283 H   0  0  0  0  0  0  0  0  0  0  0  0
    1.1279    3.2237    0.5113 H   0  0  0  0  0  0  0  0  0  0  0  0
    2.5596    2.4338    1.2299 H   0  0  0  0  0  0  0  0  0  0  0  0
    0.1953   -3.4981    0.9057 H   0  0  0  0  0  0  0  0  0  0  0  0
    1.5243   -3.6661   -0.0293 H   0  0  0  0  0  0  0  0  0  0  0  0
   -2.3794   -0.5136    1.2311 H   0  0  0  0  0  0  0  0  0  0  0  0
   -1.1067    1.1106    2.2221 H   0  0  0  0  0  0  0  0  0  0  0  0
    3.4933   -1.7408   -1.6744 H   0  0  0  0  0  0  0  0  0  0  0  0
   -3.0396   -1.8506   -1.4422 H   0  0  0  0  0  0  0  0  0  0  0  0
   -4.1369   -1.6837   -0.0603 H   0  0  0  0  0  0  0  0  0  0  0  0
   -2.6903   -2.7103    0.0540 H   0  0  0  0  0  0  0  0  0  0  0  0
    3.0753    3.7622   -0.5286 H   0  0  0  0  0  0  0  0  0  0  0  0
   -4.3525    1.8292   -0.4868 H   0  0  0  0  0  0  0  0  0  0  0  0
  1 12  1  0  0  0  0
  1 13  1  0  0  0  0
  2  9  1  0  0  0  0
  2 15  1  0  0  0  0
  3 10  1  0  0  0  0
  3 28  1  0  0  0  0
  4 13  1  0  0  0  0
  4 29  1  0  0  0  0
  5 14  1  0  0  0  0
  5 33  1  0  0  0  0
  6 17  1  0  0  0  0
  6 34  1  0  0  0  0
  7 17  2  0  0  0  0
  8 11  1  0  0  0  0
  8 25  1  0  0  0  0
  8 26  1  0  0  0  0
  9 10  1  0  0  0  0
  9 11  1  0  0  0  0
  9 18  1  0  0  0  0
 10 12  1  0  0  0  0
 10 19  1  0  0  0  0
 11 13  1  0  0  0  0
 11 20  1  0  0  0  0
 12 14  1  0  0  0  0
 12 21  1  0  0  0  0
 13 22  1  0  0  0  0
 14 23  1  0  0  0  0
 14 24  1  0  0  0  0
 15 16  1  0  0  0  0
 15 17  1  0  0  0  0
 15 27  1  0  0  0  0
 16 30  1  0  0  0  0
 16 31  1  0  0  0  0
 16 32  1  0  0  0  0
M  END
> <PUBCHEM_COMPOUND_CID>
22833605

> <PUBCHEM_CONFORMER_RMSD>
0.6

> <PUBCHEM_CONFORMER_DIVERSEORDER>
1
23
31
61
18
48
9
65
69
54
67
10
63
6
59
19
55
56
74
33
29
25
70
45
62
43
73
53
60
68
2
50
17
47
24
49
35
51
4
36
37
34
71
32
58
11
39
8
42
40
20
57
72
12
3
52
22
7
41
64
30
38
66
27
14
15
46
28
44
5
26
21
13
16

> <PUBCHEM_MMFF94_PARTIAL_CHARGES>
22
1 -0.56
10 0.28
11 0.27
12 0.28
13 0.56
14 0.28
15 0.34
17 0.66
2 -0.56
25 0.36
26 0.36
28 0.4
29 0.4
3 -0.68
33 0.4
34 0.5
4 -0.68
5 -0.68
6 -0.65
7 -0.57
8 -0.99
9 0.28

> <PUBCHEM_EFFECTIVE_ROTOR_COUNT>
5.2

> <PUBCHEM_PHARMACOPHORE_FEATURES>
14
1 1 acceptor
1 2 acceptor
1 3 acceptor
1 3 donor
1 4 acceptor
1 4 donor
1 5 acceptor
1 5 donor
1 6 acceptor
1 7 acceptor
1 8 cation
1 8 donor
3 6 7 17 anion
6 1 9 10 11 12 13 rings

> <PUBCHEM_HEAVY_ATOM_COUNT>
17

> <PUBCHEM_ATOM_DEF_STEREO_COUNT>
6

> <PUBCHEM_ATOM_UDEF_STEREO_COUNT>
0

> <PUBCHEM_BOND_DEF_STEREO_COUNT>
0

> <PUBCHEM_BOND_UDEF_STEREO_COUNT>
0

> <PUBCHEM_ISOTOPIC_ATOM_COUNT>
0

> <PUBCHEM_COMPONENT_COUNT>
1

> <PUBCHEM_CACTVS_TAUTO_COUNT>
1

> <PUBCHEM_CONFORMER_ID>
015C69C500000001

> <PUBCHEM_MMFF94_ENERGY>
36.462

> <PUBCHEM_FEATURE_SELFOVERLAP>
71.174

> <PUBCHEM_SHAPE_FINGERPRINT>
10756046 5 18413389851905454093
12400797 292 18413109441795808926
12423570 1 16912327674182896434
13380535 21 18340206388331442025
13380535 76 18050565441687566930
14120999 15 18123191208174551312
14648413 74 18335414634810524995
14817 1 9391361844396594768
16945 1 18265606594181288435
18186145 218 18341905124742301512
18981168 100 17823954823818826173
19786989 88 18261659459254740221
20344682 6 17835233824402223887
20600515 1 17912618247144482970
20671657 53 18126852590548465462
20820808 20 18411417349293428025
21501502 16 18339352054832773187
21524375 3 18045488974805970048
21947302 44 18261667185752907192
22112679 90 17834111944643072322
22802520 49 18333737926812283363
23114952 82 18409457989729590764
2334 1 18266454489444976097
23402539 116 17760631964546783302
23419403 2 16758103816698708022
23526113 38 17198559413242244248
23552423 10 18412258437276635371
23557571 272 17461732984416838227
23559900 14 18272088259010722242
238 59 18053350431542001029
25 1 18334298638808168512
2748010 2 18335982081425945603
3071541 158 18410012105051094508
5262128 65 17916044407212808030
549884 4 18336823079019680531
58051976 378 18123745615290230423
7364860 26 18412820278848847872
74978 22 18341046320583428907
7832392 63 18267017267710592253
81228 2 17694226569283052610

> <PUBCHEM_SHAPE_MULTIPOLES>
303.79
5.05
3.03
1.01
2.98
0.26
0.14
-1.06
-1.49
-1.97
-0.29
-0.06
-0.22
0.19

> <PUBCHEM_SHAPE_SELFOVERLAP>
610.076

> <PUBCHEM_SHAPE_VOLUME>
176

> <PUBCHEM_COORDINATE_TYPE>
2
5
10

$$$$
