53477714
  -OEChem-09111623393D

 62 63  0     1  0  0  0  0  0999 V2000
    3.7481   -1.8134   -2.5874 S   0  0  0  0  0  0  0  0  0  0  0  0
    0.9082    4.2278   -0.6145 S   0  0  0  0  0  0  0  0  0  0  0  0
   -7.0862   -1.0919    0.3590 S   0  0  0  0  0  0  0  0  0  0  0  0
    0.3191   -1.1653   -0.4421 O   0  0  0  0  0  0  0  0  0  0  0  0
   -2.2329    1.4110    0.0979 O   0  0  0  0  0  0  0  0  0  0  0  0
    1.7672   -0.1638    1.1115 O   0  0  0  0  0  0  0  0  0  0  0  0
    2.9163   -1.1880   -1.3316 O   0  0  0  0  0  0  0  0  0  0  0  0
   -3.7316    0.6414   -1.5646 O   0  0  0  0  0  0  0  0  0  0  0  0
    4.6164    0.0529    0.6357 O   0  0  0  0  0  0  0  0  0  0  0  0
   -1.8987   -2.5574    0.7865 O   0  5  0  0  0  0  0  0  0  0  0  0
    3.5467   -3.2998    1.5745 O   0  0  0  0  0  0  0  0  0  0  0  0
   -0.1650    2.9983   -0.7505 O   0  0  0  0  0  0  0  0  0  0  0  0
   -5.5874   -0.7755    0.9297 O   0  0  0  0  0  0  0  0  0  0  0  0
    2.0711    1.7802    2.7451 O   0  5  0  0  0  0  0  0  0  0  0  0
    4.1992    1.0966    3.2328 O   0  0  0  0  0  0  0  0  0  0  0  0
    3.6264   -0.6647   -3.7393 O   0  0  0  0  0  0  0  0  0  0  0  0
    3.0636   -2.9999   -3.0664 O   0  0  0  0  0  0  0  0  0  0  0  0
    5.1414   -1.8867   -2.1888 O   0  0  0  0  0  0  0  0  0  0  0  0
    0.1302    5.4898   -1.2950 O   0  0  0  0  0  0  0  0  0  0  0  0
    2.0696    3.9269   -1.4306 O   0  0  0  0  0  0  0  0  0  0  0  0
    1.0660    4.5218    0.7977 O   0  0  0  0  0  0  0  0  0  0  0  0
   -8.0213   -0.0791    1.2295 O   0  0  0  0  0  0  0  0  0  0  0  0
   -7.4454   -2.4477    0.7309 O   0  0  0  0  0  0  0  0  0  0  0  0
   -7.1507   -0.6637   -1.0262 O   0  0  0  0  0  0  0  0  0  0  0  0
   -4.5693   -1.4781    0.1713 N   0  0  0  0  0  0  0  0  0  0  0  0
   -0.8231   -0.5826    0.1899 C   0  0  2  0  0  0  0  0  0  0  0  0
   -2.0609   -1.5042   -0.0044 C   0  0  2  0  0  0  0  0  0  0  0  0
   -1.0536    0.8039   -0.4313 C   0  0  2  0  0  0  0  0  0  0  0  0
   -3.3357   -0.7363    0.4606 C   0  0  1  0  0  0  0  0  0  0  0  0
    1.3687   -1.3902    0.4955 C   0  0  2  0  0  0  0  0  0  0  0  0
    2.5548   -2.0313   -0.2359 C   0  0  2  0  0  0  0  0  0  0  0  0
    3.7667   -2.2028    0.6916 C   0  0  1  0  0  0  0  0  0  0  0  0
   -3.4217    0.6653   -0.1729 C   0  0  1  0  0  0  0  0  0  0  0  0
    4.0481   -0.9288    1.5041 C   0  0  2  0  0  0  0  0  0  0  0  0
    2.7597   -0.3749    2.1130 C   0  0  1  0  0  0  0  0  0  0  0  0
    0.1095    1.7502   -0.1420 C   0  0  0  0  0  0  0  0  0  0  0  0
    3.0354    0.9660    2.7600 C   0  0  0  0  0  0  0  0  0  0  0  0
   -4.2432    1.8911   -2.0010 C   0  0  0  0  0  0  0  0  0  0  0  0
    5.9941   -0.1972    0.4078 C   0  0  0  0  0  0  0  0  0  0  0  0
   -0.6652   -0.4349    1.2717 H   0  0  0  0  0  0  0  0  0  0  0  0
   -2.1567   -1.6612   -1.0902 H   0  0  0  0  0  0  0  0  0  0  0  0
   -1.1563    0.7264   -1.5219 H   0  0  0  0  0  0  0  0  0  0  0  0
   -3.2549   -0.5849    1.5506 H   0  0  0  0  0  0  0  0  0  0  0  0
    1.0061   -2.0797    1.2696 H   0  0  0  0  0  0  0  0  0  0  0  0
    2.2232   -3.0018   -0.6252 H   0  0  0  0  0  0  0  0  0  0  0  0
    4.6327   -2.4924    0.0993 H   0  0  0  0  0  0  0  0  0  0  0  0
   -4.2229    1.2100    0.3438 H   0  0  0  0  0  0  0  0  0  0  0  0
    4.7520   -1.1583    2.3164 H   0  0  0  0  0  0  0  0  0  0  0  0
    2.3621   -1.0486    2.8825 H   0  0  0  0  0  0  0  0  0  0  0  0
    1.0444    1.3741   -0.5645 H   0  0  0  0  0  0  0  0  0  0  0  0
    0.2044    1.9137    0.9344 H   0  0  0  0  0  0  0  0  0  0  0  0
   -4.5355   -2.3665    0.6713 H   0  0  0  0  0  0  0  0  0  0  0  0
    4.3427   -3.4002    2.1241 H   0  0  0  0  0  0  0  0  0  0  0  0
   -5.1896    2.1173   -1.4999 H   0  0  0  0  0  0  0  0  0  0  0  0
   -3.5201    2.6935   -1.8256 H   0  0  0  0  0  0  0  0  0  0  0  0
   -4.4318    1.8263   -3.0761 H   0  0  0  0  0  0  0  0  0  0  0  0
    6.2116   -1.2106    0.0697 H   0  0  0  0  0  0  0  0  0  0  0  0
    6.3408    0.5003   -0.3601 H   0  0  0  0  0  0  0  0  0  0  0  0
    6.5607    0.0040    1.3228 H   0  0  0  0  0  0  0  0  0  0  0  0
    4.0790   -0.8716   -4.5905 H   0  0  0  0  0  0  0  0  0  0  0  0
    0.6323    6.3383   -1.3061 H   0  0  0  0  0  0  0  0  0  0  0  0
   -8.9857   -0.1170    1.0279 H   0  0  0  0  0  0  0  0  0  0  0  0
  1  7  1  0  0  0  0
  1 16  1  0  0  0  0
  1 17  2  0  0  0  0
  1 18  2  0  0  0  0
  2 12  1  0  0  0  0
  2 19  1  0  0  0  0
  2 20  2  0  0  0  0
  2 21  2  0  0  0  0
  3 13  1  0  0  0  0
  3 22  1  0  0  0  0
  3 23  2  0  0  0  0
  3 24  2  0  0  0  0
  4 26  1  0  0  0  0
  4 30  1  0  0  0  0
  5 28  1  0  0  0  0
  5 33  1  0  0  0  0
  6 30  1  0  0  0  0
  6 35  1  0  0  0  0
  7 31  1  0  0  0  0
  8 33  1  0  0  0  0
  8 38  1  0  0  0  0
  9 34  1  0  0  0  0
  9 39  1  0  0  0  0
 10 27  1  0  0  0  0
 11 32  1  0  0  0  0
 11 53  1  0  0  0  0
 12 36  1  0  0  0  0
 13 25  1  0  0  0  0
 14 37  1  0  0  0  0
 15 37  2  0  0  0  0
 16 60  1  0  0  0  0
 19 61  1  0  0  0  0
 22 62  1  0  0  0  0
 25 29  1  0  0  0  0
 25 52  1  0  0  0  0
 26 27  1  0  0  0  0
 26 28  1  0  0  0  0
 26 40  1  0  0  0  0
 27 29  1  0  0  0  0
 27 41  1  0  0  0  0
 28 36  1  0  0  0  0
 28 42  1  0  0  0  0
 29 33  1  0  0  0  0
 29 43  1  0  0  0  0
 30 31  1  0  0  0  0
 30 44  1  0  0  0  0
 31 32  1  0  0  0  0
 31 45  1  0  0  0  0
 32 34  1  0  0  0  0
 32 46  1  0  0  0  0
 33 47  1  0  0  0  0
 34 35  1  0  0  0  0
 34 48  1  0  0  0  0
 35 37  1  0  0  0  0
 35 49  1  0  0  0  0
 36 50  1  0  0  0  0
 36 51  1  0  0  0  0
 38 54  1  0  0  0  0
 38 55  1  0  0  0  0
 38 56  1  0  0  0  0
 39 57  1  0  0  0  0
 39 58  1  0  0  0  0
 39 59  1  0  0  0  0
M  CHG  2  10  -1  14  -1
M  END
> <PUBCHEM_COMPOUND_CID>
53477714

> <PUBCHEM_CONFORMER_RMSD>
1.4

> <PUBCHEM_CONFORMER_DIVERSEORDER>
1
3
2
4

> <PUBCHEM_MMFF94_PARTIAL_CHARGES>
44
1 1.67
10 -0.93
11 -0.68
12 -0.46
13 -0.08
14 -0.9
15 -0.9
16 -0.68
17 -0.65
18 -0.65
19 -0.68
2 1.67
20 -0.65
21 -0.65
22 -0.68
23 -0.65
24 -0.65
25 -0.73
26 0.28
27 -0.07
28 0.28
29 0.27
3 1.67
30 0.56
31 0.28
32 0.28
33 0.56
34 0.28
35 0.17
36 0.28
37 0.91
38 0.28
39 0.28
4 -0.56
5 -0.56
52 0.36
53 0.4
6 -0.56
60 0.5
61 0.5
62 0.5
7 -0.46
8 -0.56
9 -0.56

> <PUBCHEM_EFFECTIVE_ROTOR_COUNT>
15.4

> <PUBCHEM_PHARMACOPHORE_FEATURES>
25
1 10 acceptor
1 11 acceptor
1 11 donor
1 14 acceptor
1 15 acceptor
1 16 acceptor
1 17 acceptor
1 18 acceptor
1 19 acceptor
1 20 acceptor
1 21 acceptor
1 22 acceptor
1 23 acceptor
1 24 acceptor
1 4 acceptor
1 5 acceptor
1 6 acceptor
1 8 acceptor
1 9 acceptor
3 14 15 37 anion
4 1 16 17 18 anion
4 2 19 20 21 anion
4 3 22 23 24 anion
6 5 26 27 28 29 33 rings
6 6 30 31 32 34 35 rings

> <PUBCHEM_HEAVY_ATOM_COUNT>
39

> <PUBCHEM_ATOM_DEF_STEREO_COUNT>
10

> <PUBCHEM_ATOM_UDEF_STEREO_COUNT>
0

> <PUBCHEM_BOND_DEF_STEREO_COUNT>
0

> <PUBCHEM_BOND_UDEF_STEREO_COUNT>
0

> <PUBCHEM_ISOTOPIC_ATOM_COUNT>
0

> <PUBCHEM_COMPONENT_COUNT>
1

> <PUBCHEM_CACTVS_TAUTO_COUNT>
1

> <PUBCHEM_CONFORMER_ID>
0330015200000001

> <PUBCHEM_MMFF94_ENERGY>
98.2047

> <PUBCHEM_FEATURE_SELFOVERLAP>
127.255

> <PUBCHEM_SHAPE_FINGERPRINT>
11578080 2 16517621837463792836
12166972 35 16950838116243307378
12788726 201 18045796580289778684
13533116 47 15769781221357389639
13782708 43 17987518096142016638
15183329 4 15285634366617233923
15219462 58 17977071619424113702
15664445 248 18337684104420469836
1813 80 18341338811992959365
19315092 285 16227425427601492856
20505436 4 13398046735633706762
21033648 29 18057577963872991289
21133665 82 17397558975209606204
2260408 40 17989208161820338009
23559900 14 18270974543408991015
3411729 13 17898289660856759881
394071 54 18341055215302443841

> <PUBCHEM_SHAPE_MULTIPOLES>
685.91
14.95
4.74
2.79
29.51
7.7
0.89
-10.69
-1.76
-2.25
1.66
-4.92
-0.37
2.89

> <PUBCHEM_SHAPE_SELFOVERLAP>
1371.446

> <PUBCHEM_SHAPE_VOLUME>
403.3

> <PUBCHEM_COORDINATE_TYPE>
2
5
10

$$$$
