95433
  -OEChem-09121605413D

 18 17  0     1  0  0  0  0  0999 V2000
    0.6128    0.7161    1.4085 O   0  0  0  0  0  0  0  0  0  0  0  0
   -1.5199   -0.5332   -1.1971 O   0  0  0  0  0  0  0  0  0  0  0  0
   -1.4509   -0.8789    1.0384 O   0  0  0  0  0  0  0  0  0  0  0  0
    0.2293    0.5773    0.0390 C   0  0  2  0  0  0  0  0  0  0  0  0
    1.3989   -0.0826   -0.7110 C   0  0  0  0  0  0  0  0  0  0  0  0
   -0.1365    1.9617   -0.4953 C   0  0  0  0  0  0  0  0  0  0  0  0
    1.8516   -1.4127   -0.1196 C   0  0  0  0  0  0  0  0  0  0  0  0
   -0.9853   -0.3476    0.0370 C   0  0  0  0  0  0  0  0  0  0  0  0
    2.2613    0.5960   -0.6908 H   0  0  0  0  0  0  0  0  0  0  0  0
    1.1355   -0.2337   -1.7648 H   0  0  0  0  0  0  0  0  0  0  0  0
   -0.3935    1.9285   -1.5591 H   0  0  0  0  0  0  0  0  0  0  0  0
    0.6944    2.6626   -0.3591 H   0  0  0  0  0  0  0  0  0  0  0  0
   -0.9944    2.3771    0.0459 H   0  0  0  0  0  0  0  0  0  0  0  0
    2.7012   -1.8032   -0.6896 H   0  0  0  0  0  0  0  0  0  0  0  0
    2.1729   -1.3018    0.9205 H   0  0  0  0  0  0  0  0  0  0  0  0
    1.0551   -2.1618   -0.1583 H   0  0  0  0  0  0  0  0  0  0  0  0
   -0.0942    1.1949    1.8743 H   0  0  0  0  0  0  0  0  0  0  0  0
   -2.2984   -1.1296   -1.1724 H   0  0  0  0  0  0  0  0  0  0  0  0
  1  4  1  0  0  0  0
  1 17  1  0  0  0  0
  2  8  1  0  0  0  0
  2 18  1  0  0  0  0
  3  8  2  0  0  0  0
  4  5  1  0  0  0  0
  4  6  1  0  0  0  0
  4  8  1  0  0  0  0
  5  7  1  0  0  0  0
  5  9  1  0  0  0  0
  5 10  1  0  0  0  0
  6 11  1  0  0  0  0
  6 12  1  0  0  0  0
  6 13  1  0  0  0  0
  7 14  1  0  0  0  0
  7 15  1  0  0  0  0
  7 16  1  0  0  0  0
M  END
> <PUBCHEM_COMPOUND_CID>
95433

> <PUBCHEM_CONFORMER_RMSD>
0.4

> <PUBCHEM_CONFORMER_DIVERSEORDER>
4
5
10
2
3
8
6
7
9
1

> <PUBCHEM_MMFF94_PARTIAL_CHARGES>
7
1 -0.68
17 0.4
18 0.5
2 -0.65
3 -0.57
4 0.34
8 0.66

> <PUBCHEM_EFFECTIVE_ROTOR_COUNT>
2

> <PUBCHEM_PHARMACOPHORE_FEATURES>
6
1 1 acceptor
1 1 donor
1 2 acceptor
1 3 acceptor
1 7 hydrophobe
3 2 3 8 anion

> <PUBCHEM_HEAVY_ATOM_COUNT>
8

> <PUBCHEM_ATOM_DEF_STEREO_COUNT>
0

> <PUBCHEM_ATOM_UDEF_STEREO_COUNT>
1

> <PUBCHEM_BOND_DEF_STEREO_COUNT>
0

> <PUBCHEM_BOND_UDEF_STEREO_COUNT>
0

> <PUBCHEM_ISOTOPIC_ATOM_COUNT>
0

> <PUBCHEM_COMPONENT_COUNT>
1

> <PUBCHEM_CACTVS_TAUTO_COUNT>
1

> <PUBCHEM_CONFORMER_ID>
000174C900000004

> <PUBCHEM_MMFF94_ENERGY>
7.9587

> <PUBCHEM_FEATURE_SELFOVERLAP>
30.516

> <PUBCHEM_SHAPE_FINGERPRINT>
12423570 1 13783482997249600260
137420 1 13488683515799941156
21040471 1 15938343015557654623
24536 1 18120650494564024225
29004967 10 18190197830383027002
5943 1 16012657713456728736

> <PUBCHEM_SHAPE_MULTIPOLES>
147.03
1.98
1.59
1.13
1.04
0.51
0.15
-0.79
-0.29
-0.45
-0.03
-0.19
-0.04
0.08

> <PUBCHEM_SHAPE_SELFOVERLAP>
275.545

> <PUBCHEM_SHAPE_VOLUME>
92.5

> <PUBCHEM_COORDINATE_TYPE>
2
5
10

$$$$
