119226
  -OEChem-09121605143D

 24 24  0     1  0  0  0  0  0999 V2000
    2.6776    2.3286   -0.5375 Cl  0  0  0  0  0  0  0  0  0  0  0  0
   -1.8321    1.4230    1.2626 O   0  0  0  0  0  0  0  0  0  0  0  0
    4.0382   -0.0922    0.6154 O   0  0  0  0  0  0  0  0  0  0  0  0
   -3.4997    1.4157   -0.2836 O   0  0  0  0  0  0  0  0  0  0  0  0
   -3.5877   -1.3409   -0.0138 N   0  0  0  0  0  0  0  0  0  0  0  0
   -1.3342   -0.9438   -0.8907 C   0  0  0  0  0  0  0  0  0  0  0  0
   -2.3203   -0.6566    0.2498 C   0  0  1  0  0  0  0  0  0  0  0  0
    0.1045   -0.7076   -0.4900 C   0  0  0  0  0  0  0  0  0  0  0  0
    0.6620    0.5463   -0.6749 C   0  0  0  0  0  0  0  0  0  0  0  0
    0.8351   -1.7506    0.0539 C   0  0  0  0  0  0  0  0  0  0  0  0
   -2.6345    0.8231    0.3454 C   0  0  0  0  0  0  0  0  0  0  0  0
    1.9892    0.7639   -0.3047 C   0  0  0  0  0  0  0  0  0  0  0  0
    2.1624   -1.5332    0.4236 C   0  0  0  0  0  0  0  0  0  0  0  0
    2.7395   -0.2759    0.2445 C   0  0  0  0  0  0  0  0  0  0  0  0
   -1.5715   -0.3406   -1.7779 H   0  0  0  0  0  0  0  0  0  0  0  0
   -1.4257   -1.9895   -1.2169 H   0  0  0  0  0  0  0  0  0  0  0  0
   -1.9449   -1.0168    1.2143 H   0  0  0  0  0  0  0  0  0  0  0  0
    0.0741    1.3525   -1.1064 H   0  0  0  0  0  0  0  0  0  0  0  0
    0.3938   -2.7322    0.1999 H   0  0  0  0  0  0  0  0  0  0  0  0
   -3.9856   -1.0160   -0.8941 H   0  0  0  0  0  0  0  0  0  0  0  0
   -4.2636   -1.1150    0.7148 H   0  0  0  0  0  0  0  0  0  0  0  0
    2.7408   -2.3475    0.8516 H   0  0  0  0  0  0  0  0  0  0  0  0
   -2.0259    2.3809    1.3470 H   0  0  0  0  0  0  0  0  0  0  0  0
    4.2817    0.8303    0.4252 H   0  0  0  0  0  0  0  0  0  0  0  0
  1 12  1  0  0  0  0
  2 11  1  0  0  0  0
  2 23  1  0  0  0  0
  3 14  1  0  0  0  0
  3 24  1  0  0  0  0
  4 11  2  0  0  0  0
  5  7  1  0  0  0  0
  5 20  1  0  0  0  0
  5 21  1  0  0  0  0
  6  7  1  0  0  0  0
  6  8  1  0  0  0  0
  6 15  1  0  0  0  0
  6 16  1  0  0  0  0
  7 11  1  0  0  0  0
  7 17  1  0  0  0  0
  8  9  2  0  0  0  0
  8 10  1  0  0  0  0
  9 12  1  0  0  0  0
  9 18  1  0  0  0  0
 10 13  2  0  0  0  0
 10 19  1  0  0  0  0
 12 14  2  0  0  0  0
 13 14  1  0  0  0  0
 13 22  1  0  0  0  0
M  END
> <PUBCHEM_COMPOUND_CID>
119226

> <PUBCHEM_CONFORMER_RMSD>
0.6

> <PUBCHEM_CONFORMER_DIVERSEORDER>
2
21
12
16
31
19
7
28
29
13
18
11
10
25
3
5
17
24
32
20
15
22
14
1
26
9
8
27
30
23
6
4

> <PUBCHEM_MMFF94_PARTIAL_CHARGES>
21
1 -0.18
10 -0.15
11 0.66
12 0.18
13 -0.15
14 0.08
18 0.15
19 0.15
2 -0.65
20 0.36
21 0.36
22 0.15
23 0.5
24 0.45
3 -0.53
4 -0.57
5 -0.99
6 0.14
7 0.33
8 -0.14
9 -0.15

> <PUBCHEM_EFFECTIVE_ROTOR_COUNT>
3

> <PUBCHEM_PHARMACOPHORE_FEATURES>
7
1 2 acceptor
1 3 donor
1 4 acceptor
1 5 cation
1 5 donor
3 2 4 11 anion
6 8 9 10 12 13 14 rings

> <PUBCHEM_HEAVY_ATOM_COUNT>
14

> <PUBCHEM_ATOM_DEF_STEREO_COUNT>
0

> <PUBCHEM_ATOM_UDEF_STEREO_COUNT>
1

> <PUBCHEM_BOND_DEF_STEREO_COUNT>
0

> <PUBCHEM_BOND_UDEF_STEREO_COUNT>
0

> <PUBCHEM_ISOTOPIC_ATOM_COUNT>
0

> <PUBCHEM_COMPONENT_COUNT>
1

> <PUBCHEM_CACTVS_TAUTO_COUNT>
3

> <PUBCHEM_CONFORMER_ID>
0001D1BA00000002

> <PUBCHEM_MMFF94_ENERGY>
25.7137

> <PUBCHEM_FEATURE_SELFOVERLAP>
35.577

> <PUBCHEM_SHAPE_FINGERPRINT>
11471102 22 18040443182759746370
12162725 195 18409730681318637707
12251169 10 18335422335491746767
12346645 44 18192152813940010636
12696612 119 18335704918638572326
14144814 61 18409446964290020150
14325111 11 18409450318632922812
15375462 478 18342454863460839967
15442244 35 18194682566508986034
15775835 57 18340495533640033077
16945 1 18265341603093855006
200 152 18341035407245928367
20559304 39 18341615944704953632
21524375 3 18195815287124536252
22802520 49 15050078254396823624
230 275 18202570548783571606
23402539 116 17775272885726524039
23557571 272 16917064503334886879
2748010 2 17975392643719810006
63268167 104 18335984164316272584
7364860 26 17986958444670464454

> <PUBCHEM_SHAPE_MULTIPOLES>
267.39
6.11
2.05
0.88
1.34
0.54
-0.03
1.15
-0.8
-0.53
0.03
0.09
0.11
-0.69

> <PUBCHEM_SHAPE_SELFOVERLAP>
545.915

> <PUBCHEM_SHAPE_VOLUME>
155.3

> <PUBCHEM_COORDINATE_TYPE>
2
5
10

$$$$
