160637
  -OEChem-09121601153D

 27 27  0     1  0  0  0  0  0999 V2000
    2.0722    1.6550   -0.4944 O   0  0  0  0  0  0  0  0  0  0  0  0
   -3.1085    1.4008    0.5173 O   0  0  0  0  0  0  0  0  0  0  0  0
   -3.9735   -1.0455   -0.4778 O   0  0  0  0  0  0  0  0  0  0  0  0
    4.0736   -1.2791   -0.1268 O   0  0  0  0  0  0  0  0  0  0  0  0
    4.6093    0.9296   -0.0358 O   0  0  0  0  0  0  0  0  0  0  0  0
    1.4667   -0.2743    0.8082 C   0  0  0  0  0  0  0  0  0  0  0  0
    0.0285   -0.4750    0.4693 C   0  0  0  0  0  0  0  0  0  0  0  0
    2.2921    0.2553   -0.3743 C   0  0  2  0  0  0  0  0  0  0  0  0
   -0.8827    0.5653    0.6520 C   0  0  0  0  0  0  0  0  0  0  0  0
   -0.4058   -1.7030   -0.0300 C   0  0  0  0  0  0  0  0  0  0  0  0
   -2.2282    0.3774    0.3354 C   0  0  0  0  0  0  0  0  0  0  0  0
   -1.7511   -1.8908   -0.3466 C   0  0  0  0  0  0  0  0  0  0  0  0
   -2.6623   -0.8507   -0.1639 C   0  0  0  0  0  0  0  0  0  0  0  0
    3.7739    0.0445   -0.1523 C   0  0  0  0  0  0  0  0  0  0  0  0
   -3.3041    2.2905   -0.5803 C   0  0  0  0  0  0  0  0  0  0  0  0
    1.5466    0.4162    1.6590 H   0  0  0  0  0  0  0  0  0  0  0  0
    1.8739   -1.2269    1.1709 H   0  0  0  0  0  0  0  0  0  0  0  0
    2.0102   -0.2173   -1.3222 H   0  0  0  0  0  0  0  0  0  0  0  0
   -0.5506    1.5248    1.0410 H   0  0  0  0  0  0  0  0  0  0  0  0
    0.2948   -2.5204   -0.1791 H   0  0  0  0  0  0  0  0  0  0  0  0
   -2.0757   -2.8523   -0.7355 H   0  0  0  0  0  0  0  0  0  0  0  0
    2.5166    1.9526   -1.3067 H   0  0  0  0  0  0  0  0  0  0  0  0
   -4.0883   -1.9527   -0.8092 H   0  0  0  0  0  0  0  0  0  0  0  0
   -3.6906    1.7505   -1.4503 H   0  0  0  0  0  0  0  0  0  0  0  0
   -2.3668    2.7945   -0.8366 H   0  0  0  0  0  0  0  0  0  0  0  0
   -4.0372    3.0453   -0.2831 H   0  0  0  0  0  0  0  0  0  0  0  0
    5.0333   -1.4345    0.0042 H   0  0  0  0  0  0  0  0  0  0  0  0
  1  8  1  0  0  0  0
  1 22  1  0  0  0  0
  2 11  1  0  0  0  0
  2 15  1  0  0  0  0
  3 13  1  0  0  0  0
  3 23  1  0  0  0  0
  4 14  1  0  0  0  0
  4 27  1  0  0  0  0
  5 14  2  0  0  0  0
  6  7  1  0  0  0  0
  6  8  1  0  0  0  0
  6 16  1  0  0  0  0
  6 17  1  0  0  0  0
  7  9  2  0  0  0  0
  7 10  1  0  0  0  0
  8 14  1  0  0  0  0
  8 18  1  0  0  0  0
  9 11  1  0  0  0  0
  9 19  1  0  0  0  0
 10 12  2  0  0  0  0
 10 20  1  0  0  0  0
 11 13  2  0  0  0  0
 12 13  1  0  0  0  0
 12 21  1  0  0  0  0
 15 24  1  0  0  0  0
 15 25  1  0  0  0  0
 15 26  1  0  0  0  0
M  END
> <PUBCHEM_COMPOUND_CID>
160637

> <PUBCHEM_CONFORMER_RMSD>
0.6

> <PUBCHEM_CONFORMER_DIVERSEORDER>
1
52
34
28
46
48
33
21
41
43
50
47
45
53
42
51
15
39
22
5
14
32
20
18
40
37
24
49
13
38
10
44
6
11
30
27
3
12
19
31
29
9
16
4
35
23
36
8
25
26
17
7
2

> <PUBCHEM_MMFF94_PARTIAL_CHARGES>
21
1 -0.68
10 -0.15
11 0.08
12 -0.15
13 0.08
14 0.66
15 0.28
19 0.15
2 -0.36
20 0.15
21 0.15
22 0.4
23 0.45
27 0.5
3 -0.53
4 -0.65
5 -0.57
6 0.14
7 -0.14
8 0.34
9 -0.15

> <PUBCHEM_EFFECTIVE_ROTOR_COUNT>
4

> <PUBCHEM_PHARMACOPHORE_FEATURES>
8
1 1 acceptor
1 1 donor
1 2 acceptor
1 3 donor
1 4 acceptor
1 5 acceptor
3 4 5 14 anion
6 7 9 10 11 12 13 rings

> <PUBCHEM_HEAVY_ATOM_COUNT>
15

> <PUBCHEM_ATOM_DEF_STEREO_COUNT>
0

> <PUBCHEM_ATOM_UDEF_STEREO_COUNT>
1

> <PUBCHEM_BOND_DEF_STEREO_COUNT>
0

> <PUBCHEM_BOND_UDEF_STEREO_COUNT>
0

> <PUBCHEM_ISOTOPIC_ATOM_COUNT>
0

> <PUBCHEM_COMPONENT_COUNT>
1

> <PUBCHEM_CACTVS_TAUTO_COUNT>
3

> <PUBCHEM_CONFORMER_ID>
0002737D00000001

> <PUBCHEM_MMFF94_ENERGY>
38.5931

> <PUBCHEM_FEATURE_SELFOVERLAP>
40.662

> <PUBCHEM_SHAPE_FINGERPRINT>
10062212 137 18342449297009495210
10608611 8 18342454893678676312
10922523 26 18341901779115830422
11206711 2 18271511070923567125
12186901 62 18342740710824897727
12500047 106 18343578556070821538
14144814 61 18408605872655358730
14250199 8 18042971063029247980
14325111 11 18412266129536545794
15442244 35 18409449151013695930
15775835 57 18260832557442892705
16945 1 18341036528179573339
17802600 8 18410570733893181405
17834072 32 18263924341586587133
17834072 8 18268433443129841374
18186145 218 18202011992824430152
200 152 15338843045161176530
20645476 183 18408035200282466171
20645477 56 18413110575693808912
20645477 70 17274835618953383510
20871999 31 18272364287356543189
21524375 3 18335986372383065467
23402539 116 18273209794196447236
23402655 69 18409451358569110740
23557571 272 18060427940534733800
23559900 14 17988923345765077778
23598291 2 17969768692645156931
2748010 2 17694201671695383915
305870 269 18187928305213327251
474 4 17460317878966802348
5104073 3 18411419501483500594
559249 180 18338511925033980818
573450 72 18336532868354004826
58051976 100 18411987987175024974
633830 44 17386014940297612258
6430166 295 18335981956951119216
69090 78 18271806856066981566
93112 12 18339081604894634646
9709674 26 18271815639686916046

> <PUBCHEM_SHAPE_MULTIPOLES>
279.35
7.72
2
0.78
5.58
0.32
0.05
1.68
-1.14
-1.57
-0.37
-0.11
0.06
-0.19

> <PUBCHEM_SHAPE_SELFOVERLAP>
577.277

> <PUBCHEM_SHAPE_VOLUME>
160.1

> <PUBCHEM_COORDINATE_TYPE>
2
5
10

$$$$
