91638
  -OEChem-09121611013D

 50 52  0     1  0  0  0  0  0999 V2000
   -0.0380    1.4301   -1.3622 S   0  0  0  0  0  0  0  0  0  0  0  0
   -1.2215    0.9896    2.5279 O   0  0  0  0  0  0  0  0  0  0  0  0
   -0.0863   -1.2691    1.7712 O   0  0  0  0  0  0  0  0  0  0  0  0
   -6.0620   -0.9821   -0.6219 O   0  0  0  0  0  0  0  0  0  0  0  0
    1.7081   -0.2025    0.7496 N   0  0  0  0  0  0  0  0  0  0  0  0
    3.8551   -3.0663   -0.3384 N   0  0  0  0  0  0  0  0  0  0  0  0
   -1.0468    1.5437    0.1657 C   0  0  2  0  0  0  0  0  0  0  0  0
   -0.3102    1.0926    1.4369 C   0  0  2  0  0  0  0  0  0  0  0  0
    2.5500   -1.3923    0.8759 C   0  0  0  0  0  0  0  0  0  0  0  0
    0.4217   -0.2414    1.3118 C   0  0  0  0  0  0  0  0  0  0  0  0
    2.2976    0.9617    0.1503 C   0  0  0  0  0  0  0  0  0  0  0  0
   -2.3945    0.8648   -0.0462 C   0  0  0  0  0  0  0  0  0  0  0  0
    1.5882    1.8122   -0.7237 C   0  0  0  0  0  0  0  0  0  0  0  0
    2.9954   -1.8993   -0.4879 C   0  0  0  0  0  0  0  0  0  0  0  0
    3.6470    1.2588    0.4221 C   0  0  0  0  0  0  0  0  0  0  0  0
    2.2233    2.9420   -1.2675 C   0  0  0  0  0  0  0  0  0  0  0  0
   -3.5617    1.6243   -0.0393 C   0  0  0  0  0  0  0  0  0  0  0  0
   -2.4531   -0.5123   -0.2456 C   0  0  0  0  0  0  0  0  0  0  0  0
    4.2630    2.3891   -0.1174 C   0  0  0  0  0  0  0  0  0  0  0  0
    3.5490    3.2349   -0.9558 C   0  0  0  0  0  0  0  0  0  0  0  0
   -4.7954    1.0029   -0.2330 C   0  0  0  0  0  0  0  0  0  0  0  0
   -3.6868   -1.1338   -0.4395 C   0  0  0  0  0  0  0  0  0  0  0  0
    4.3186   -3.5369   -1.6452 C   0  0  0  0  0  0  0  0  0  0  0  0
    3.1511   -4.1396    0.3663 C   0  0  0  0  0  0  0  0  0  0  0  0
   -4.8580   -0.3762   -0.4332 C   0  0  0  0  0  0  0  0  0  0  0  0
   -6.0539   -2.3949   -0.8208 C   0  0  0  0  0  0  0  0  0  0  0  0
   -1.2458    2.6158    0.2974 H   0  0  0  0  0  0  0  0  0  0  0  0
    0.4097    1.8590    1.7452 H   0  0  0  0  0  0  0  0  0  0  0  0
    3.3949   -1.1817    1.5403 H   0  0  0  0  0  0  0  0  0  0  0  0
    1.9659   -2.1572    1.3938 H   0  0  0  0  0  0  0  0  0  0  0  0
    2.1145   -2.1277   -1.1039 H   0  0  0  0  0  0  0  0  0  0  0  0
    3.5535   -1.1214   -1.0207 H   0  0  0  0  0  0  0  0  0  0  0  0
    4.2452    0.6494    1.0929 H   0  0  0  0  0  0  0  0  0  0  0  0
    1.6976    3.5992   -1.9574 H   0  0  0  0  0  0  0  0  0  0  0  0
   -3.5301    2.6993    0.1158 H   0  0  0  0  0  0  0  0  0  0  0  0
   -1.5589   -1.1241   -0.2898 H   0  0  0  0  0  0  0  0  0  0  0  0
   -1.8154    0.2373    2.3685 H   0  0  0  0  0  0  0  0  0  0  0  0
    5.2995    2.6084    0.1221 H   0  0  0  0  0  0  0  0  0  0  0  0
    4.0272    4.1119   -1.3815 H   0  0  0  0  0  0  0  0  0  0  0  0
   -5.7043    1.5982   -0.2268 H   0  0  0  0  0  0  0  0  0  0  0  0
   -3.6627   -2.2068   -0.5964 H   0  0  0  0  0  0  0  0  0  0  0  0
    4.8726   -2.7472   -2.1651 H   0  0  0  0  0  0  0  0  0  0  0  0
    3.4897   -3.8574   -2.2868 H   0  0  0  0  0  0  0  0  0  0  0  0
    5.0113   -4.3780   -1.5290 H   0  0  0  0  0  0  0  0  0  0  0  0
    3.0451   -3.9270    1.4345 H   0  0  0  0  0  0  0  0  0  0  0  0
    3.7338   -5.0683    0.3249 H   0  0  0  0  0  0  0  0  0  0  0  0
    2.1653   -4.3497   -0.0644 H   0  0  0  0  0  0  0  0  0  0  0  0
   -5.6697   -2.9229    0.0586 H   0  0  0  0  0  0  0  0  0  0  0  0
   -5.5189   -2.6692   -1.7363 H   0  0  0  0  0  0  0  0  0  0  0  0
   -7.0946   -2.7087   -0.9526 H   0  0  0  0  0  0  0  0  0  0  0  0
  1  7  1  0  0  0  0
  1 13  1  0  0  0  0
  2  8  1  0  0  0  0
  2 37  1  0  0  0  0
  3 10  2  0  0  0  0
  4 25  1  0  0  0  0
  4 26  1  0  0  0  0
  5  9  1  0  0  0  0
  5 10  1  0  0  0  0
  5 11  1  0  0  0  0
  6 14  1  0  0  0  0
  6 23  1  0  0  0  0
  6 24  1  0  0  0  0
  7  8  1  0  0  0  0
  7 12  1  0  0  0  0
  7 27  1  0  0  0  0
  8 10  1  0  0  0  0
  8 28  1  0  0  0  0
  9 14  1  0  0  0  0
  9 29  1  0  0  0  0
  9 30  1  0  0  0  0
 11 13  1  0  0  0  0
 11 15  2  0  0  0  0
 12 17  2  0  0  0  0
 12 18  1  0  0  0  0
 13 16  2  0  0  0  0
 14 31  1  0  0  0  0
 14 32  1  0  0  0  0
 15 19  1  0  0  0  0
 15 33  1  0  0  0  0
 16 20  1  0  0  0  0
 16 34  1  0  0  0  0
 17 21  1  0  0  0  0
 17 35  1  0  0  0  0
 18 22  2  0  0  0  0
 18 36  1  0  0  0  0
 19 20  2  0  0  0  0
 19 38  1  0  0  0  0
 20 39  1  0  0  0  0
 21 25  2  0  0  0  0
 21 40  1  0  0  0  0
 22 25  1  0  0  0  0
 22 41  1  0  0  0  0
 23 42  1  0  0  0  0
 23 43  1  0  0  0  0
 23 44  1  0  0  0  0
 24 45  1  0  0  0  0
 24 46  1  0  0  0  0
 24 47  1  0  0  0  0
 26 48  1  0  0  0  0
 26 49  1  0  0  0  0
 26 50  1  0  0  0  0
M  END
> <PUBCHEM_COMPOUND_CID>
91638

> <PUBCHEM_CONFORMER_RMSD>
0.8

> <PUBCHEM_CONFORMER_DIVERSEORDER>
1
10
9
2
3
6
12
13
11
4
8
5
7

> <PUBCHEM_MMFF94_PARTIAL_CHARGES>
35
1 -0.33
10 0.57
11 0.12
12 -0.14
13 0.1
14 0.27
15 -0.15
16 -0.15
17 -0.15
18 -0.15
19 -0.15
2 -0.68
20 -0.15
21 -0.15
22 -0.15
23 0.27
24 0.27
25 0.08
26 0.28
3 -0.57
33 0.15
34 0.15
35 0.15
36 0.15
37 0.4
38 0.15
39 0.15
4 -0.36
40 0.15
41 0.15
5 -0.48
6 -0.81
7 0.37
8 0.34
9 0.3

> <PUBCHEM_EFFECTIVE_ROTOR_COUNT>
5.8

> <PUBCHEM_PHARMACOPHORE_FEATURES>
8
1 2 acceptor
1 2 donor
1 3 acceptor
1 4 acceptor
1 6 cation
6 11 13 15 16 19 20 rings
6 12 17 18 21 22 25 rings
7 1 5 7 8 10 11 13 rings

> <PUBCHEM_HEAVY_ATOM_COUNT>
26

> <PUBCHEM_ATOM_DEF_STEREO_COUNT>
2

> <PUBCHEM_ATOM_UDEF_STEREO_COUNT>
0

> <PUBCHEM_BOND_DEF_STEREO_COUNT>
0

> <PUBCHEM_BOND_UDEF_STEREO_COUNT>
0

> <PUBCHEM_ISOTOPIC_ATOM_COUNT>
0

> <PUBCHEM_COMPONENT_COUNT>
1

> <PUBCHEM_CACTVS_TAUTO_COUNT>
1

> <PUBCHEM_CONFORMER_ID>
000165F600000001

> <PUBCHEM_MMFF94_ENERGY>
103.5928

> <PUBCHEM_FEATURE_SELFOVERLAP>
40.615

> <PUBCHEM_SHAPE_FINGERPRINT>
10759866 29 18343303707722266205
10906281 52 17603878844188911132
11796584 16 17774727480561500133
11963148 33 18125711542709689199
12107183 9 18053107216382317849
12236239 1 18263075664912950397
12293681 25 17968676985052111786
12788726 201 17203059529666696057
13009979 54 17916591908021100976
13383661 66 17335377159803763078
13533116 47 18342735243721952591
1361 2 18335983181201408636
13692114 37 17977933911022434962
15840311 113 18261119518306735029
15848702 151 18334852788426607765
16989378 47 18059306361660339326
17492 89 18411698760156995359
1813 80 18263919930507097738
20028762 73 18339076124801240884
20645477 70 18333445460782309573
20691752 17 17022901207628461801
20775438 99 18261668289497205627
21285901 2 17604139406695161580
21344244 246 18412554210974993326
22182313 1 17532113715626465217
22393880 68 17895464818285182037
23379529 103 18342739572717262287
23559900 14 18270390586480069177
25222932 49 16843579799059792903
3004659 81 18342453712393864723
4017518 198 18198071468786032868
4280585 95 18192425260938000770
4394409 98 14375936519926759718
46194498 28 18333446551646019839
474 4 17386846282525934237
59755656 215 17967808396746839364
70251023 43 18262522468239025017
7164475 11 18411417276379814617
9709674 26 18333453149021526875

> <PUBCHEM_SHAPE_MULTIPOLES>
511.35
11.24
4.36
1.48
14.44
3.43
0.49
5.63
-3.95
-7.23
-1.58
-0.39
0.02
-0.56

> <PUBCHEM_SHAPE_SELFOVERLAP>
1070.998

> <PUBCHEM_SHAPE_VOLUME>
290.7

> <PUBCHEM_COORDINATE_TYPE>
2
5
10

$$$$
