1585
  -OEChem-09121602023D

 44 47  0     1  0  0  0  0  0999 V2000
   -3.0272   -0.3226    1.1216 O   0  0  0  0  0  0  0  0  0  0  0  0
   -3.7128    0.0003   -2.3619 O   0  0  0  0  0  0  0  0  0  0  0  0
   -3.0626   -2.8785   -1.3953 O   0  0  0  0  0  0  0  0  0  0  0  0
   -5.1932   -1.9620    1.7115 O   0  0  0  0  0  0  0  0  0  0  0  0
   -2.0323    1.4940   -0.0216 N   0  0  0  0  0  0  0  0  0  0  0  0
   -1.0830    3.5109    0.0590 N   0  0  0  0  0  0  0  0  0  0  0  0
   -0.0434    0.0990   -0.0262 N   0  0  0  0  0  0  0  0  0  0  0  0
    1.9879    1.4493    0.0555 N   0  0  0  0  0  0  0  0  0  0  0  0
    2.0771   -0.8904   -0.0134 N   0  0  0  0  0  0  0  0  0  0  0  0
    1.9391    3.8408    0.1299 N   0  0  0  0  0  0  0  0  0  0  0  0
   -2.9580   -0.4710   -1.2595 C   0  0  1  0  0  0  0  0  0  0  0  0
   -3.0819    0.4785   -0.0745 C   0  0  1  0  0  0  0  0  0  0  0  0
   -3.5396   -1.7475   -0.6919 C   0  0  2  0  0  0  0  0  0  0  0  0
   -3.0263   -1.7083    0.7381 C   0  0  2  0  0  0  0  0  0  0  0  0
   -3.8822   -2.5032    1.7078 C   0  0  0  0  0  0  0  0  0  0  0  0
   -0.6830    1.2779   -0.0020 C   0  0  0  0  0  0  0  0  0  0  0  0
   -2.2216    2.8509    0.0158 C   0  0  0  0  0  0  0  0  0  0  0  0
   -0.1131    2.5401    0.0484 C   0  0  0  0  0  0  0  0  0  0  0  0
    1.2765    2.6021    0.0778 C   0  0  0  0  0  0  0  0  0  0  0  0
    1.2941    0.2865    0.0057 C   0  0  0  0  0  0  0  0  0  0  0  0
    3.4660   -1.1085    0.0084 C   0  0  0  0  0  0  0  0  0  0  0  0
    4.0101   -2.2327   -0.6175 C   0  0  0  0  0  0  0  0  0  0  0  0
    4.3085   -0.2010    0.6552 C   0  0  0  0  0  0  0  0  0  0  0  0
    5.3881   -2.4482   -0.5966 C   0  0  0  0  0  0  0  0  0  0  0  0
    5.6864   -0.4164    0.6760 C   0  0  0  0  0  0  0  0  0  0  0  0
    6.2263   -1.5399    0.0501 C   0  0  0  0  0  0  0  0  0  0  0  0
   -1.9314   -0.6247   -1.6057 H   0  0  0  0  0  0  0  0  0  0  0  0
   -4.0430    1.0070   -0.0793 H   0  0  0  0  0  0  0  0  0  0  0  0
   -4.6339   -1.7378   -0.7539 H   0  0  0  0  0  0  0  0  0  0  0  0
   -1.9942   -2.0763    0.7918 H   0  0  0  0  0  0  0  0  0  0  0  0
   -3.4896   -2.4302    2.7268 H   0  0  0  0  0  0  0  0  0  0  0  0
   -3.9368   -3.5581    1.4240 H   0  0  0  0  0  0  0  0  0  0  0  0
   -3.6881   -0.6869   -3.0493 H   0  0  0  0  0  0  0  0  0  0  0  0
   -3.3489   -2.7916   -2.3204 H   0  0  0  0  0  0  0  0  0  0  0  0
   -3.2059    3.2990    0.0096 H   0  0  0  0  0  0  0  0  0  0  0  0
   -5.1235   -1.0246    1.9612 H   0  0  0  0  0  0  0  0  0  0  0  0
    1.5216   -1.7229   -0.1866 H   0  0  0  0  0  0  0  0  0  0  0  0
    2.9496    3.8591    0.1512 H   0  0  0  0  0  0  0  0  0  0  0  0
    1.4107    4.7025    0.1472 H   0  0  0  0  0  0  0  0  0  0  0  0
    3.3684   -2.9480   -1.1260 H   0  0  0  0  0  0  0  0  0  0  0  0
    3.9317    0.6608    1.1960 H   0  0  0  0  0  0  0  0  0  0  0  0
    5.8086   -3.3232   -1.0836 H   0  0  0  0  0  0  0  0  0  0  0  0
    6.3387    0.2846    1.1887 H   0  0  0  0  0  0  0  0  0  0  0  0
    7.2990   -1.7089    0.0685 H   0  0  0  0  0  0  0  0  0  0  0  0
  1 12  1  0  0  0  0
  1 14  1  0  0  0  0
  2 11  1  0  0  0  0
  2 33  1  0  0  0  0
  3 13  1  0  0  0  0
  3 34  1  0  0  0  0
  4 15  1  0  0  0  0
  4 36  1  0  0  0  0
  5 12  1  0  0  0  0
  5 16  1  0  0  0  0
  5 17  1  0  0  0  0
  6 17  2  0  0  0  0
  6 18  1  0  0  0  0
  7 16  2  0  0  0  0
  7 20  1  0  0  0  0
  8 19  1  0  0  0  0
  8 20  2  0  0  0  0
  9 20  1  0  0  0  0
  9 21  1  0  0  0  0
  9 37  1  0  0  0  0
 10 19  1  0  0  0  0
 10 38  1  0  0  0  0
 10 39  1  0  0  0  0
 11 12  1  0  0  0  0
 11 13  1  0  0  0  0
 11 27  1  0  0  0  0
 12 28  1  0  0  0  0
 13 14  1  0  0  0  0
 13 29  1  0  0  0  0
 14 15  1  0  0  0  0
 14 30  1  0  0  0  0
 15 31  1  0  0  0  0
 15 32  1  0  0  0  0
 16 18  1  0  0  0  0
 17 35  1  0  0  0  0
 18 19  2  0  0  0  0
 21 22  2  0  0  0  0
 21 23  1  0  0  0  0
 22 24  1  0  0  0  0
 22 40  1  0  0  0  0
 23 25  2  0  0  0  0
 23 41  1  0  0  0  0
 24 26  2  0  0  0  0
 24 42  1  0  0  0  0
 25 26  1  0  0  0  0
 25 43  1  0  0  0  0
 26 44  1  0  0  0  0
M  END
> <PUBCHEM_COMPOUND_CID>
1585

> <PUBCHEM_CONFORMER_RMSD>
0.8

> <PUBCHEM_CONFORMER_DIVERSEORDER>
25
187
142
216
207
173
5
91
153
84
167
10
180
156
241
170
190
28
94
149
247
43
209
240
201
3
237
200
19
191
9
27
133
220
15
13
169
112
53
26
217
143
16
42
140
6
46
52
221
213
175
229
233
148
119
177
166
124
69
251
154
17
100
90
214
62
141
235
109
252
163
31
146
58
79
45
186
118
80
215
206
131
234
50
155
35
49
195
126
44
29
245
185
101
86
250
57
179
81
168
130
56
157
108
183
184
125
67
96
104
137
38
82
7
95
37
36
203
83
246
18
22
34
63
196
139
244
218
33
164
20
123
24
202
158
224
199
78
222
178
76
98
71
197
219
212
228
193
97
115
189
21
132
120
161
135
145
128
230
248
92
85
87
249
204
243
54
116
147
74
65
236
225
30
121
89
105
70
144
165
242
117
208
103
231
134
136
160
239
59
122
51
211
176
8
238
210
151
113
12
73
102
77
198
23
226
152
181
188
223
40
162
39
138
110
66
68
2
47
129
150
14
159
1
107
72
41
61
205
93
32
75
174
172
4
99
11
106
48
60
232
182
64
227
171
88
192
194
127
114
111
55

> <PUBCHEM_MMFF94_PARTIAL_CHARGES>
38
1 -0.56
10 -0.9
11 0.28
12 0.54
13 0.28
14 0.28
15 0.28
16 0.11
17 0.04
18 0.23
19 0.41
2 -0.68
20 0.72
21 0.1
22 -0.15
23 -0.15
24 -0.15
25 -0.15
26 -0.15
3 -0.68
33 0.4
34 0.4
35 0.15
36 0.4
37 0.4
38 0.4
39 0.4
4 -0.68
40 0.15
41 0.15
42 0.15
43 0.15
44 0.15
5 0.05
6 -0.57
7 -0.57
8 -0.62
9 -0.6

> <PUBCHEM_EFFECTIVE_ROTOR_COUNT>
5

> <PUBCHEM_PHARMACOPHORE_FEATURES>
16
1 1 acceptor
1 10 cation
1 10 donor
1 2 acceptor
1 2 donor
1 3 acceptor
1 3 donor
1 4 acceptor
1 4 donor
1 9 donor
3 5 6 17 cation
4 7 8 9 20 cation
5 1 11 12 13 14 rings
5 5 6 16 17 18 rings
6 21 22 23 24 25 26 rings
6 7 8 16 18 19 20 rings

> <PUBCHEM_HEAVY_ATOM_COUNT>
26

> <PUBCHEM_ATOM_DEF_STEREO_COUNT>
0

> <PUBCHEM_ATOM_UDEF_STEREO_COUNT>
4

> <PUBCHEM_BOND_DEF_STEREO_COUNT>
0

> <PUBCHEM_BOND_UDEF_STEREO_COUNT>
0

> <PUBCHEM_ISOTOPIC_ATOM_COUNT>
0

> <PUBCHEM_COMPONENT_COUNT>
1

> <PUBCHEM_CACTVS_TAUTO_COUNT>
9

> <PUBCHEM_CONFORMER_ID>
0000063100000019

> <PUBCHEM_MMFF94_ENERGY>
76.6712

> <PUBCHEM_FEATURE_SELFOVERLAP>
81.337

> <PUBCHEM_SHAPE_FINGERPRINT>
11014199 57 18055624273107542726
11135609 12 18334296504257337321
11135926 11 18049722115974287476
11370993 144 17273986726845754490
11552529 35 17846491496426157874
12422481 6 17845951644585444687
12553582 1 18342468070321803614
12633257 1 16200436892046952059
12788726 201 18194104232220061521
13140716 1 18411708690169187969
13544653 18 18341892978922870148
13673619 4 17603877757994331739
14790565 3 17332526770350736480
14844126 61 18339356353578286571
14950920 106 15841258337822428898
15042514 8 18337118860712237721
15352361 1 18412258437297714870
15475509 84 18059034838223625937
17349148 13 17749398027377667050
18927931 339 18340772546478149870
19315092 285 16412923114957778591
19611394 137 18262237833279422762
20101258 96 18341333314493303984
22122407 14 16056589903415022248
221490 88 18408887364838468104
23557571 272 18128255584950446692
23559900 14 18339345444477645816
3178227 256 18121792625802281649
329604 57 18259994790281833798
3421961 26 18265905837348090689
4015057 19 17772725252449851665
4073 2 18266179436178037810
4280585 95 18336246982477373296
437815 12 18335420197321038171
484985 159 18260271802850944835
5104073 3 18270676443040866802
5486654 36 18410019810053872201
56633871 153 18272658991002116671
6431902 208 18410290303184555790
6669772 16 17835530693223069932
7970288 3 18337956804289391371
9709674 26 18126848184270858918

> <PUBCHEM_SHAPE_MULTIPOLES>
481.7
11.93
4.15
1.25
13.56
2.79
-0.18
-11.5
1.04
-1.57
0.23
-1.89
-0.91
1.33

> <PUBCHEM_SHAPE_SELFOVERLAP>
1055.96

> <PUBCHEM_SHAPE_VOLUME>
255.9

> <PUBCHEM_COORDINATE_TYPE>
2
5
10

$$$$
