92851
  -OEChem-09121611363D

 14 13  0     1  0  0  0  0  0999 V2000
    2.2488   -1.1212    0.0662 S   0  0  0  0  0  0  0  0  0  0  0  0
   -1.4126   -1.1327    0.9166 O   0  0  0  0  0  0  0  0  0  0  0  0
   -1.1759   -0.5002   -1.2489 O   0  0  0  0  0  0  0  0  0  0  0  0
   -0.4262    1.9752    0.1568 N   0  0  0  0  0  0  0  0  0  0  0  0
    0.1333    0.6496    0.4283 C   0  0  2  0  0  0  0  0  0  0  0  0
    1.4976    0.5080   -0.2492 C   0  0  0  0  0  0  0  0  0  0  0  0
   -0.8651   -0.3786   -0.0698 C   0  0  0  0  0  0  0  0  0  0  0  0
    0.2408    0.5415    1.5142 H   0  0  0  0  0  0  0  0  0  0  0  0
    1.4127    0.6233   -1.3357 H   0  0  0  0  0  0  0  0  0  0  0  0
    2.1907    1.2742    0.1150 H   0  0  0  0  0  0  0  0  0  0  0  0
   -0.4874    2.1242   -0.8503 H   0  0  0  0  0  0  0  0  0  0  0  0
    0.2123    2.6904    0.5038 H   0  0  0  0  0  0  0  0  0  0  0  0
    2.3242   -1.0006    1.3997 H   0  0  0  0  0  0  0  0  0  0  0  0
   -2.0645   -1.7765    0.5660 H   0  0  0  0  0  0  0  0  0  0  0  0
  1  6  1  0  0  0  0
  1 13  1  0  0  0  0
  2  7  1  0  0  0  0
  2 14  1  0  0  0  0
  3  7  2  0  0  0  0
  4  5  1  0  0  0  0
  4 11  1  0  0  0  0
  4 12  1  0  0  0  0
  5  6  1  0  0  0  0
  5  7  1  0  0  0  0
  5  8  1  0  0  0  0
  6  9  1  0  0  0  0
  6 10  1  0  0  0  0
M  END
> <PUBCHEM_COMPOUND_CID>
92851

> <PUBCHEM_CONFORMER_RMSD>
0.4

> <PUBCHEM_CONFORMER_DIVERSEORDER>
1
8
3
5
4
7
6
9
2

> <PUBCHEM_MMFF94_PARTIAL_CHARGES>
11
1 -0.41
11 0.36
12 0.36
13 0.18
14 0.5
2 -0.65
3 -0.57
4 -0.99
5 0.33
6 0.23
7 0.66

> <PUBCHEM_EFFECTIVE_ROTOR_COUNT>
2

> <PUBCHEM_PHARMACOPHORE_FEATURES>
5
1 2 acceptor
1 3 acceptor
1 4 cation
1 4 donor
3 2 3 7 anion

> <PUBCHEM_HEAVY_ATOM_COUNT>
7

> <PUBCHEM_ATOM_DEF_STEREO_COUNT>
1

> <PUBCHEM_ATOM_UDEF_STEREO_COUNT>
0

> <PUBCHEM_BOND_DEF_STEREO_COUNT>
0

> <PUBCHEM_BOND_UDEF_STEREO_COUNT>
0

> <PUBCHEM_ISOTOPIC_ATOM_COUNT>
0

> <PUBCHEM_COMPONENT_COUNT>
1

> <PUBCHEM_CACTVS_TAUTO_COUNT>
1

> <PUBCHEM_CONFORMER_ID>
00016AB300000001

> <PUBCHEM_MMFF94_ENERGY>
6.5266

> <PUBCHEM_FEATURE_SELFOVERLAP>
25.43

> <PUBCHEM_SHAPE_FINGERPRINT>
137420 1 15968409049070633488
139733 1 8502382130585015634
18185500 45 18058441187468853806
21040471 1 17691411810936495560
23552333 60 16983483964986147863
24536 1 18260544507261388642
29004967 10 18265337394173611096
5943 1 17201082744908601253

> <PUBCHEM_SHAPE_MULTIPOLES>
131.19
2.39
1.57
0.9
1.69
0.48
-0.12
-0.8
-0.02
-0.4
0.18
-0.27
-0.22
-0.03

> <PUBCHEM_SHAPE_SELFOVERLAP>
231.285

> <PUBCHEM_SHAPE_VOLUME>
87.5

> <PUBCHEM_COORDINATE_TYPE>
2
5
10

$$$$
