6453952
  -OEChem-09121601223D

 33 32  0     0  0  0  0  0  0999 V2000
   -2.6840    1.4107   -0.6153 O   0  0  0  0  0  0  0  0  0  0  0  0
    7.3330    0.2013   -0.8542 O   0  0  0  0  0  0  0  0  0  0  0  0
    6.4320   -1.1719    0.7206 O   0  0  0  0  0  0  0  0  0  0  0  0
   -4.8217   -1.4763   -0.8267 O   0  0  0  0  0  0  0  0  0  0  0  0
   -6.8184   -0.4016   -0.7483 O   0  0  0  0  0  0  0  0  0  0  0  0
   -3.6687    0.0284    0.9709 N   0  0  0  0  0  0  0  0  0  0  0  0
    1.2571   -0.0391    0.5254 C   0  0  0  0  0  0  0  0  0  0  0  0
    2.4858    0.4735   -0.2332 C   0  0  0  0  0  0  0  0  0  0  0  0
   -0.0533    0.6055    0.0609 C   0  0  0  0  0  0  0  0  0  0  0  0
    3.7985   -0.1580    0.2436 C   0  0  0  0  0  0  0  0  0  0  0  0
   -1.2709    0.0249    0.7802 C   0  0  0  0  0  0  0  0  0  0  0  0
    5.0112    0.3721   -0.5229 C   0  0  0  0  0  0  0  0  0  0  0  0
   -2.5961    0.5848    0.2892 C   0  0  0  0  0  0  0  0  0  0  0  0
    6.3043   -0.2936   -0.1192 C   0  0  0  0  0  0  0  0  0  0  0  0
   -5.0451    0.3648    0.6880 C   0  0  0  0  0  0  0  0  0  0  0  0
   -5.6636   -0.5256   -0.3589 C   0  0  0  0  0  0  0  0  0  0  0  0
    1.1899   -1.1267    0.3993 H   0  0  0  0  0  0  0  0  0  0  0  0
    1.3896    0.1486    1.5980 H   0  0  0  0  0  0  0  0  0  0  0  0
    2.3565    0.2728   -1.3038 H   0  0  0  0  0  0  0  0  0  0  0  0
    2.5488    1.5628   -0.1196 H   0  0  0  0  0  0  0  0  0  0  0  0
   -0.0101    1.6891    0.2259 H   0  0  0  0  0  0  0  0  0  0  0  0
   -0.1653    0.4583   -1.0206 H   0  0  0  0  0  0  0  0  0  0  0  0
    3.7390   -1.2475    0.1278 H   0  0  0  0  0  0  0  0  0  0  0  0
    3.9316    0.0345    1.3154 H   0  0  0  0  0  0  0  0  0  0  0  0
   -1.1930    0.2237    1.8559 H   0  0  0  0  0  0  0  0  0  0  0  0
   -1.2962   -1.0631    0.6429 H   0  0  0  0  0  0  0  0  0  0  0  0
    4.8666    0.2010   -1.5958 H   0  0  0  0  0  0  0  0  0  0  0  0
    5.1126    1.4489   -0.3473 H   0  0  0  0  0  0  0  0  0  0  0  0
   -3.4911   -0.6668    1.6902 H   0  0  0  0  0  0  0  0  0  0  0  0
   -5.0978    1.4005    0.3395 H   0  0  0  0  0  0  0  0  0  0  0  0
   -5.6052    0.2499    1.6201 H   0  0  0  0  0  0  0  0  0  0  0  0
    8.1860   -0.2244   -0.6226 H   0  0  0  0  0  0  0  0  0  0  0  0
   -5.2474   -2.0422   -1.5055 H   0  0  0  0  0  0  0  0  0  0  0  0
  1 13  2  0  0  0  0
  2 14  1  0  0  0  0
  2 32  1  0  0  0  0
  3 14  2  0  0  0  0
  4 16  1  0  0  0  0
  4 33  1  0  0  0  0
  5 16  2  0  0  0  0
  6 13  1  0  0  0  0
  6 15  1  0  0  0  0
  6 29  1  0  0  0  0
  7  8  1  0  0  0  0
  7  9  1  0  0  0  0
  7 17  1  0  0  0  0
  7 18  1  0  0  0  0
  8 10  1  0  0  0  0
  8 19  1  0  0  0  0
  8 20  1  0  0  0  0
  9 11  1  0  0  0  0
  9 21  1  0  0  0  0
  9 22  1  0  0  0  0
 10 12  1  0  0  0  0
 10 23  1  0  0  0  0
 10 24  1  0  0  0  0
 11 13  1  0  0  0  0
 11 25  1  0  0  0  0
 11 26  1  0  0  0  0
 12 14  1  0  0  0  0
 12 27  1  0  0  0  0
 12 28  1  0  0  0  0
 15 16  1  0  0  0  0
 15 30  1  0  0  0  0
 15 31  1  0  0  0  0
M  END
> <PUBCHEM_COMPOUND_CID>
6453952

> <PUBCHEM_CONFORMER_RMSD>
1

> <PUBCHEM_CONFORMER_DIVERSEORDER>
1
12
86
94
27
58
20
65
22
80
83
85
73
71
32
39
18
23
100
67
30
2
69
98
24
81
11
76
96
45
50
21
54
52
8
62
28
43
48
59
82
47
29
89
34
14
53
84
10
66
74
41
33
6
61
7
42
40
57
99
17
90
25
36
31
64
63
87
4
26
68
16
72
5
101
9
51
46
49
78
79
19
13
77
3
75
38
92
55
95
15
88
97
56
93
37
60
91
44
35
70

> <PUBCHEM_MMFF94_PARTIAL_CHARGES>
15
1 -0.57
11 0.06
12 0.06
13 0.57
14 0.66
15 0.36
16 0.66
2 -0.65
29 0.37
3 -0.57
32 0.5
33 0.5
4 -0.65
5 -0.57
6 -0.73

> <PUBCHEM_EFFECTIVE_ROTOR_COUNT>
10

> <PUBCHEM_PHARMACOPHORE_FEATURES>
10
1 1 acceptor
1 2 acceptor
1 3 acceptor
1 4 acceptor
1 5 acceptor
1 6 donor
3 2 3 14 anion
3 4 5 16 anion
3 7 9 11 hydrophobe
3 8 10 12 hydrophobe

> <PUBCHEM_HEAVY_ATOM_COUNT>
16

> <PUBCHEM_ATOM_DEF_STEREO_COUNT>
0

> <PUBCHEM_ATOM_UDEF_STEREO_COUNT>
0

> <PUBCHEM_BOND_DEF_STEREO_COUNT>
0

> <PUBCHEM_BOND_UDEF_STEREO_COUNT>
0

> <PUBCHEM_ISOTOPIC_ATOM_COUNT>
0

> <PUBCHEM_COMPONENT_COUNT>
1

> <PUBCHEM_CACTVS_TAUTO_COUNT>
2

> <PUBCHEM_CONFORMER_ID>
00627AC000000001

> <PUBCHEM_MMFF94_ENERGY>
10.819

> <PUBCHEM_FEATURE_SELFOVERLAP>
50.863

> <PUBCHEM_SHAPE_FINGERPRINT>
10087517 78 10809332343961605911
10968037 39 17530687619312647577
11315181 36 17917433150992357321
12091667 2 18335707130858200057
12714333 28 14851605483702922408
13288520 33 18131350826262570121
13533116 47 18335420120127717506
13668630 136 17989211434585326918
14123256 10 17894912931671603747
1420 363 16272210790720599732
14251718 22 18272090495986485378
14251764 18 18408605860308410008
14251764 46 17418094317261353764
14729087 3 13623526874595783830
15048467 5 11314025777111032334
15716309 27 15985384499322921837
17834072 8 16226047799223210476
17834076 25 16056882420799836520
20281389 69 8646773283363736422
20767249 213 12035447237953621871
21130983 4 9295285054167932994
21150785 3 17530964704453142278
22224240 67 13326852236442668333
23035841 295 18202282511445135179
23402539 116 18409729551995673861
23559900 14 17603871164396651224
246663 6 17775570862030980055
29717793 49 17822014198907452454
300161 21 14562529591931630880
3014965 18 15647323105798013594
33532 11 17489033652783285958
3545911 37 15574715798479190673
42788 4 17894917317466397656
4325135 7 18412826880319090199
57583515 80 17458345234625584209
59755656 215 16298383535554425746
59755656 520 7853571284054945361
8209 1 17603307055482041576

> <PUBCHEM_SHAPE_MULTIPOLES>
294.94
20.54
0.98
0.91
12.04
0.11
-0.03
5.23
3.48
-0.64
0.11
-0.17
0.03
-0.9

> <PUBCHEM_SHAPE_SELFOVERLAP>
559.365

> <PUBCHEM_SHAPE_VOLUME>
180.3

> <PUBCHEM_COORDINATE_TYPE>
2
5
10

$$$$
