210328
  -OEChem-09121603233D

 18 18  0     1  0  0  0  0  0999 V2000
    0.3388   -1.2154    0.4688 O   0  0  0  0  0  0  0  0  0  0  0  0
   -2.1435    1.4225   -0.1575 O   0  0  0  0  0  0  0  0  0  0  0  0
   -3.7733   -0.8101   -0.5773 O   0  0  0  0  0  0  0  0  0  0  0  0
    0.6035    2.2833    0.1553 O   0  0  0  0  0  0  0  0  0  0  0  0
    2.9315    0.7959   -0.5185 O   0  0  0  0  0  0  0  0  0  0  0  0
    2.4108   -2.0307   -0.2134 O   0  0  0  0  0  0  0  0  0  0  0  0
   -0.3388    0.0684    0.6578 C   0  0  2  0  0  0  0  0  0  0  0  0
   -1.5814    0.1090   -0.2045 C   0  0  1  0  0  0  0  0  0  0  0  0
    0.6795    1.0781    0.2271 C   0  0  0  0  0  0  0  0  0  0  0  0
   -2.6419   -0.8739    0.2845 C   0  0  0  0  0  0  0  0  0  0  0  0
    1.8923    0.3165   -0.1425 C   0  0  0  0  0  0  0  0  0  0  0  0
    1.6225   -1.1438    0.0202 C   0  0  0  0  0  0  0  0  0  0  0  0
   -0.5444    0.1998    1.7250 H   0  0  0  0  0  0  0  0  0  0  0  0
   -1.3508   -0.1093   -1.2545 H   0  0  0  0  0  0  0  0  0  0  0  0
   -2.2705   -1.9027    0.2789 H   0  0  0  0  0  0  0  0  0  0  0  0
   -2.9823   -0.6263    1.2954 H   0  0  0  0  0  0  0  0  0  0  0  0
   -1.5408    2.0214   -0.6298 H   0  0  0  0  0  0  0  0  0  0  0  0
   -4.0902    0.1094   -0.5740 H   0  0  0  0  0  0  0  0  0  0  0  0
  1  7  1  0  0  0  0
  1 12  1  0  0  0  0
  2  8  1  0  0  0  0
  2 17  1  0  0  0  0
  3 10  1  0  0  0  0
  3 18  1  0  0  0  0
  4  9  2  0  0  0  0
  5 11  2  0  0  0  0
  6 12  2  0  0  0  0
  7  8  1  0  0  0  0
  7  9  1  0  0  0  0
  7 13  1  0  0  0  0
  8 10  1  0  0  0  0
  8 14  1  0  0  0  0
  9 11  1  0  0  0  0
 10 15  1  0  0  0  0
 10 16  1  0  0  0  0
 11 12  1  0  0  0  0
M  END
> <PUBCHEM_COMPOUND_CID>
210328

> <PUBCHEM_CONFORMER_RMSD>
0.6

> <PUBCHEM_CONFORMER_DIVERSEORDER>
1
4
3
2

> <PUBCHEM_MMFF94_PARTIAL_CHARGES>
14
1 -0.43
10 0.28
11 0.57
12 0.72
17 0.4
18 0.4
2 -0.68
3 -0.68
4 -0.57
5 -0.57
6 -0.57
7 0.34
8 0.28
9 0.51

> <PUBCHEM_EFFECTIVE_ROTOR_COUNT>
2.4

> <PUBCHEM_PHARMACOPHORE_FEATURES>
9
1 11 anion
1 2 acceptor
1 2 donor
1 3 acceptor
1 3 donor
1 4 acceptor
1 5 acceptor
1 6 acceptor
5 1 7 9 11 12 rings

> <PUBCHEM_HEAVY_ATOM_COUNT>
12

> <PUBCHEM_ATOM_DEF_STEREO_COUNT>
2

> <PUBCHEM_ATOM_UDEF_STEREO_COUNT>
0

> <PUBCHEM_BOND_DEF_STEREO_COUNT>
0

> <PUBCHEM_BOND_UDEF_STEREO_COUNT>
0

> <PUBCHEM_ISOTOPIC_ATOM_COUNT>
0

> <PUBCHEM_COMPONENT_COUNT>
1

> <PUBCHEM_CACTVS_TAUTO_COUNT>
2

> <PUBCHEM_CONFORMER_ID>
0003359800000001

> <PUBCHEM_MMFF94_ENERGY>
23.3846

> <PUBCHEM_FEATURE_SELFOVERLAP>
45.687

> <PUBCHEM_SHAPE_FINGERPRINT>
12138202 97 17459475630909836811
12897270 3 18336545040127505023
12932764 1 17632289094904535697
14128692 85 18339928086966473226
15477762 27 18341047514415720631
16945 1 18338802337167019883
20201158 50 18335984263274808139
20645477 70 18411131425348231863
21501502 16 18410013191546022953
21501925 9 18336532842420754986
23402655 69 18410848846596165469
23552423 10 18189620453550237794
2748010 2 18338516335300053886
29004967 10 18411983559179612008
5084963 1 18129386054153820625

> <PUBCHEM_SHAPE_MULTIPOLES>
211.74
4.49
1.87
0.69
2.69
0.23
-0.03
-1.23
0.99
-0.76
0
0.07
-0.02
-0.02

> <PUBCHEM_SHAPE_SELFOVERLAP>
437.261

> <PUBCHEM_SHAPE_VOLUME>
120

> <PUBCHEM_COORDINATE_TYPE>
2
5
10

$$$$
