440732
  -OEChem-09111623513D

 26 26  0     0  0  0  0  0  0999 V2000
   -1.2086    1.3801   -1.2580 O   0  0  0  0  0  0  0  0  0  0  0  0
    4.5876   -1.4884   -0.5090 O   0  0  0  0  0  0  0  0  0  0  0  0
   -2.4823   -1.6831    0.1112 O   0  0  0  0  0  0  0  0  0  0  0  0
   -4.6072   -1.5016   -0.6630 O   0  0  0  0  0  0  0  0  0  0  0  0
   -2.2436    0.8388    0.7482 N   0  0  0  0  0  0  0  0  0  0  0  0
    0.0481    1.5954    0.8006 C   0  0  0  0  0  0  0  0  0  0  0  0
    1.2477    0.7802    0.4543 C   0  0  0  0  0  0  0  0  0  0  0  0
   -1.1814    1.2675   -0.0352 C   0  0  0  0  0  0  0  0  0  0  0  0
    1.4790   -0.4317    1.1047 C   0  0  0  0  0  0  0  0  0  0  0  0
    2.1389    1.2302   -0.5199 C   0  0  0  0  0  0  0  0  0  0  0  0
    2.6017   -1.1937    0.7811 C   0  0  0  0  0  0  0  0  0  0  0  0
    3.2614    0.4682   -0.8435 C   0  0  0  0  0  0  0  0  0  0  0  0
   -3.5237    0.4715    0.1895 C   0  0  0  0  0  0  0  0  0  0  0  0
    3.4929   -0.7437   -0.1931 C   0  0  0  0  0  0  0  0  0  0  0  0
   -3.6105   -0.9898   -0.1681 C   0  0  0  0  0  0  0  0  0  0  0  0
   -0.1662    1.4951    1.8719 H   0  0  0  0  0  0  0  0  0  0  0  0
    0.2598    2.6628    0.6541 H   0  0  0  0  0  0  0  0  0  0  0  0
    0.7906   -0.7939    1.8637 H   0  0  0  0  0  0  0  0  0  0  0  0
    1.9691    2.1719   -1.0353 H   0  0  0  0  0  0  0  0  0  0  0  0
   -2.1278    0.7511    1.7533 H   0  0  0  0  0  0  0  0  0  0  0  0
   -3.7078    1.0627   -0.7126 H   0  0  0  0  0  0  0  0  0  0  0  0
   -4.2822    0.6913    0.9460 H   0  0  0  0  0  0  0  0  0  0  0  0
    2.7701   -2.1364    1.2947 H   0  0  0  0  0  0  0  0  0  0  0  0
    3.9517    0.8237   -1.6038 H   0  0  0  0  0  0  0  0  0  0  0  0
    4.5892   -2.2935    0.0369 H   0  0  0  0  0  0  0  0  0  0  0  0
   -2.5638   -2.6304   -0.1300 H   0  0  0  0  0  0  0  0  0  0  0  0
  1  8  2  0  0  0  0
  2 14  1  0  0  0  0
  2 25  1  0  0  0  0
  3 15  1  0  0  0  0
  3 26  1  0  0  0  0
  4 15  2  0  0  0  0
  5  8  1  0  0  0  0
  5 13  1  0  0  0  0
  5 20  1  0  0  0  0
  6  7  1  0  0  0  0
  6  8  1  0  0  0  0
  6 16  1  0  0  0  0
  6 17  1  0  0  0  0
  7  9  2  0  0  0  0
  7 10  1  0  0  0  0
  9 11  1  0  0  0  0
  9 18  1  0  0  0  0
 10 12  2  0  0  0  0
 10 19  1  0  0  0  0
 11 14  2  0  0  0  0
 11 23  1  0  0  0  0
 12 14  1  0  0  0  0
 12 24  1  0  0  0  0
 13 15  1  0  0  0  0
 13 21  1  0  0  0  0
 13 22  1  0  0  0  0
M  END
> <PUBCHEM_COMPOUND_CID>
440732

> <PUBCHEM_CONFORMER_RMSD>
0.6

> <PUBCHEM_CONFORMER_DIVERSEORDER>
1
8
33
3
14
28
5
25
22
2
31
29
16
17
30
15
7
11
32
27
6
9
21
12
4
23
13
10
19
24
18
20
26

> <PUBCHEM_MMFF94_PARTIAL_CHARGES>
22
1 -0.57
10 -0.15
11 -0.15
12 -0.15
13 0.36
14 0.08
15 0.66
18 0.15
19 0.15
2 -0.53
20 0.37
23 0.15
24 0.15
25 0.45
26 0.5
3 -0.65
4 -0.57
5 -0.73
6 0.2
7 -0.14
8 0.57
9 -0.15

> <PUBCHEM_EFFECTIVE_ROTOR_COUNT>
5

> <PUBCHEM_PHARMACOPHORE_FEATURES>
7
1 1 acceptor
1 2 donor
1 3 acceptor
1 4 acceptor
1 5 donor
3 3 4 15 anion
6 7 9 10 11 12 14 rings

> <PUBCHEM_HEAVY_ATOM_COUNT>
15

> <PUBCHEM_ATOM_DEF_STEREO_COUNT>
0

> <PUBCHEM_ATOM_UDEF_STEREO_COUNT>
0

> <PUBCHEM_BOND_DEF_STEREO_COUNT>
0

> <PUBCHEM_BOND_UDEF_STEREO_COUNT>
0

> <PUBCHEM_ISOTOPIC_ATOM_COUNT>
0

> <PUBCHEM_COMPONENT_COUNT>
1

> <PUBCHEM_CACTVS_TAUTO_COUNT>
4

> <PUBCHEM_CONFORMER_ID>
0006B99C00000001

> <PUBCHEM_MMFF94_ENERGY>
27.6835

> <PUBCHEM_FEATURE_SELFOVERLAP>
35.579

> <PUBCHEM_SHAPE_FINGERPRINT>
11046707 91 18341613698320993835
11769659 78 18411419501056296680
11806522 49 18409449181184176504
12006461 19 18273495688894861435
12400797 292 18187089498290218476
14123255 352 8862944952891099403
14123260 362 12035726475284143591
14576447 43 18333732395153219698
15239191 94 18342176665475428791
15375462 189 18336272270875541033
1798214 55 8070036583595651347
18186145 218 15430042071212826453
18915474 69 18409171029931813294
19422 9 18342184366220201065
200 152 18259707774480722280
20281475 54 18413673508630904225
20645477 70 18266451182647238279
20671657 53 18342177812543258073
20871999 31 17822284670183316493
21634736 98 18334579091814907714
21713013 43 18113894966242418407
221490 88 18262810682288461314
22485316 2 18413388734992787577
22646028 28 18413107260047498035
23379529 103 18341908410651590670
23402539 116 16588589704242181916
23402655 69 17749954345347812468
23503958 8 17703515389258536147
23598291 2 18334871497272741228
2871803 45 18187077373444489531
465052 167 18058453265376040639
568465 68 16630530634896261766
58051976 100 18187364286213956389
76465 3 17845926446592353719
94968 8 18337951302429977387

> <PUBCHEM_SHAPE_MULTIPOLES>
280.23
8.23
1.83
1.01
2.81
0.18
0.02
4.74
-1.85
0.39
-0.08
-0.23
-0.12
-0.44

> <PUBCHEM_SHAPE_SELFOVERLAP>
577.331

> <PUBCHEM_SHAPE_VOLUME>
160.1

> <PUBCHEM_COORDINATE_TYPE>
2
5
10

$$$$
