99463
  -OEChem-09111623413D

 27 26  0     0  0  0  0  0  0999 V2000
    0.5351   -0.9480   -1.1251 O   0  0  0  0  0  0  0  0  0  0  0  0
    2.9429    1.5188   -0.1554 O   0  0  0  0  0  0  0  0  0  0  0  0
    4.7979    0.2461   -0.4507 O   0  0  0  0  0  0  0  0  0  0  0  0
    1.5101   -0.3903    0.9048 N   0  0  0  0  0  0  0  0  0  0  0  0
   -2.0652   -0.1940   -0.2824 C   0  0  0  0  0  0  0  0  0  0  0  0
   -3.3788    0.1876    0.4068 C   0  0  0  0  0  0  0  0  0  0  0  0
   -0.8622   -0.0751    0.6520 C   0  0  0  0  0  0  0  0  0  0  0  0
   -4.5600    0.0867   -0.5586 C   0  0  0  0  0  0  0  0  0  0  0  0
    0.4481   -0.5155    0.0211 C   0  0  0  0  0  0  0  0  0  0  0  0
   -5.8633    0.4911    0.1115 C   0  0  0  0  0  0  0  0  0  0  0  0
    2.8557   -0.7694    0.5448 C   0  0  0  0  0  0  0  0  0  0  0  0
    3.6398    0.3620   -0.0686 C   0  0  0  0  0  0  0  0  0  0  0  0
   -1.9072    0.4470   -1.1589 H   0  0  0  0  0  0  0  0  0  0  0  0
   -2.1370   -1.2227   -0.6572 H   0  0  0  0  0  0  0  0  0  0  0  0
   -3.5474   -0.4708    1.2675 H   0  0  0  0  0  0  0  0  0  0  0  0
   -3.3046    1.2119    0.7920 H   0  0  0  0  0  0  0  0  0  0  0  0
   -0.7506    0.9657    0.9792 H   0  0  0  0  0  0  0  0  0  0  0  0
   -1.0274   -0.6895    1.5455 H   0  0  0  0  0  0  0  0  0  0  0  0
   -4.6494   -0.9404   -0.9312 H   0  0  0  0  0  0  0  0  0  0  0  0
   -4.3880    0.7333   -1.4270 H   0  0  0  0  0  0  0  0  0  0  0  0
   -6.6944    0.4105   -0.5963 H   0  0  0  0  0  0  0  0  0  0  0  0
   -6.0816   -0.1560    0.9670 H   0  0  0  0  0  0  0  0  0  0  0  0
   -5.8179    1.5258    0.4657 H   0  0  0  0  0  0  0  0  0  0  0  0
    1.3499   -0.0072    1.8319 H   0  0  0  0  0  0  0  0  0  0  0  0
    2.8219   -1.5979   -0.1688 H   0  0  0  0  0  0  0  0  0  0  0  0
    3.3593   -1.0839    1.4632 H   0  0  0  0  0  0  0  0  0  0  0  0
    3.4746    2.2387   -0.5570 H   0  0  0  0  0  0  0  0  0  0  0  0
  1  9  2  0  0  0  0
  2 12  1  0  0  0  0
  2 27  1  0  0  0  0
  3 12  2  0  0  0  0
  4  9  1  0  0  0  0
  4 11  1  0  0  0  0
  4 24  1  0  0  0  0
  5  6  1  0  0  0  0
  5  7  1  0  0  0  0
  5 13  1  0  0  0  0
  5 14  1  0  0  0  0
  6  8  1  0  0  0  0
  6 15  1  0  0  0  0
  6 16  1  0  0  0  0
  7  9  1  0  0  0  0
  7 17  1  0  0  0  0
  7 18  1  0  0  0  0
  8 10  1  0  0  0  0
  8 19  1  0  0  0  0
  8 20  1  0  0  0  0
 10 21  1  0  0  0  0
 10 22  1  0  0  0  0
 10 23  1  0  0  0  0
 11 12  1  0  0  0  0
 11 25  1  0  0  0  0
 11 26  1  0  0  0  0
M  END
> <PUBCHEM_COMPOUND_CID>
99463

> <PUBCHEM_CONFORMER_RMSD>
0.8

> <PUBCHEM_CONFORMER_DIVERSEORDER>
1
48
61
71
56
68
26
29
55
13
8
32
43
51
31
72
2
69
35
75
41
39
42
64
33
10
25
11
52
66
3
63
9
65
28
46
70
27
19
17
73
53
22
36
57
44
74
5
45
40
12
67
20
76
62
47
37
4
7
18
15
24
49
34
59
38
30
14
60
50
54
16
58
21
6
23

> <PUBCHEM_MMFF94_PARTIAL_CHARGES>
10
1 -0.57
11 0.36
12 0.66
2 -0.65
24 0.37
27 0.5
3 -0.57
4 -0.73
7 0.06
9 0.57

> <PUBCHEM_EFFECTIVE_ROTOR_COUNT>
7

> <PUBCHEM_PHARMACOPHORE_FEATURES>
7
1 1 acceptor
1 10 hydrophobe
1 2 acceptor
1 3 acceptor
1 4 donor
3 2 3 12 anion
4 5 6 7 8 hydrophobe

> <PUBCHEM_HEAVY_ATOM_COUNT>
12

> <PUBCHEM_ATOM_DEF_STEREO_COUNT>
0

> <PUBCHEM_ATOM_UDEF_STEREO_COUNT>
0

> <PUBCHEM_BOND_DEF_STEREO_COUNT>
0

> <PUBCHEM_BOND_UDEF_STEREO_COUNT>
0

> <PUBCHEM_ISOTOPIC_ATOM_COUNT>
0

> <PUBCHEM_COMPONENT_COUNT>
1

> <PUBCHEM_CACTVS_TAUTO_COUNT>
2

> <PUBCHEM_CONFORMER_ID>
0001848700000001

> <PUBCHEM_MMFF94_ENERGY>
6.1898

> <PUBCHEM_FEATURE_SELFOVERLAP>
35.58

> <PUBCHEM_SHAPE_FINGERPRINT>
11062470 55 17749106686370317627
12815109 37 12179843909585553965
14123238 8 15213019349794464227
14252887 29 13767923481745229656
14911166 2 16702302364442789291
14993402 34 18059857285362224880
15477762 27 11887679481109241104
17834072 33 18409444821686817455
17834076 25 17385443219688598115
18342897 14 13551191086999397687
20432913 95 10015587228910282093
20645477 70 18188768340608099394
21119208 17 17847062194189136732
23402539 116 18334851732328688327
23402655 69 18410572894235039212
4047638 21 18113901558827274458
42 15 9367348141331732979
42788 4 18259703389614284713
449060 50 17022903458159325646
4990 188 14692573221383553117
522135 26 18413387618617613346

> <PUBCHEM_SHAPE_MULTIPOLES>
224.37
11.33
0.93
0.86
8.17
0.17
0.06
2.89
0.47
-0.69
0.01
0.03
-0.12
-0.17

> <PUBCHEM_SHAPE_SELFOVERLAP>
417.215

> <PUBCHEM_SHAPE_VOLUME>
140.2

> <PUBCHEM_COORDINATE_TYPE>
2
5
10

$$$$
