6079438
  -OEChem-09111619153D

 24 23  0     0  0  0  0  0  0999 V2000
   -5.2942    0.9329    0.5241 O   0  0  0  0  0  0  0  0  0  0  0  0
   -4.5439   -1.1264   -0.0789 O   0  0  0  0  0  0  0  0  0  0  0  0
    5.0928   -0.3729    1.1076 O   0  0  0  0  0  0  0  0  0  0  0  0
    4.5987    1.0574   -0.6001 O   0  0  0  0  0  0  0  0  0  0  0  0
   -0.5005    0.2825   -0.2700 C   0  0  0  0  0  0  0  0  0  0  0  0
   -1.8951   -0.3482   -0.2340 C   0  0  0  0  0  0  0  0  0  0  0  0
    0.6092   -0.7316   -0.5654 C   0  0  0  0  0  0  0  0  0  0  0  0
   -2.9615    0.6887    0.1011 C   0  0  0  0  0  0  0  0  0  0  0  0
    1.9787   -0.1144   -0.5777 C   0  0  0  0  0  0  0  0  0  0  0  0
   -4.3255    0.0519    0.1702 C   0  0  0  0  0  0  0  0  0  0  0  0
    2.9621   -0.4893    0.2512 C   0  0  0  0  0  0  0  0  0  0  0  0
    4.2792    0.1693    0.1719 C   0  0  0  0  0  0  0  0  0  0  0  0
   -0.4817    1.0753   -1.0288 H   0  0  0  0  0  0  0  0  0  0  0  0
   -0.2988    0.7656    0.6949 H   0  0  0  0  0  0  0  0  0  0  0  0
   -2.1126   -0.8106   -1.2048 H   0  0  0  0  0  0  0  0  0  0  0  0
   -1.9116   -1.1537    0.5110 H   0  0  0  0  0  0  0  0  0  0  0  0
    0.4304   -1.1881   -1.5466 H   0  0  0  0  0  0  0  0  0  0  0  0
    0.5609   -1.5439    0.1705 H   0  0  0  0  0  0  0  0  0  0  0  0
   -2.9839    1.4694   -0.6667 H   0  0  0  0  0  0  0  0  0  0  0  0
   -2.7476    1.1456    1.0735 H   0  0  0  0  0  0  0  0  0  0  0  0
    2.1471    0.6669   -1.3148 H   0  0  0  0  0  0  0  0  0  0  0  0
    2.8141   -1.2694    0.9900 H   0  0  0  0  0  0  0  0  0  0  0  0
   -6.1787    0.5102    0.5588 H   0  0  0  0  0  0  0  0  0  0  0  0
    5.9859    0.0329    1.0975 H   0  0  0  0  0  0  0  0  0  0  0  0
  1 10  1  0  0  0  0
  1 23  1  0  0  0  0
  2 10  2  0  0  0  0
  3 12  1  0  0  0  0
  3 24  1  0  0  0  0
  4 12  2  0  0  0  0
  5  6  1  0  0  0  0
  5  7  1  0  0  0  0
  5 13  1  0  0  0  0
  5 14  1  0  0  0  0
  6  8  1  0  0  0  0
  6 15  1  0  0  0  0
  6 16  1  0  0  0  0
  7  9  1  0  0  0  0
  7 17  1  0  0  0  0
  7 18  1  0  0  0  0
  8 10  1  0  0  0  0
  8 19  1  0  0  0  0
  8 20  1  0  0  0  0
  9 11  2  0  0  0  0
  9 21  1  0  0  0  0
 11 12  1  0  0  0  0
 11 22  1  0  0  0  0
M  END
> <PUBCHEM_COMPOUND_CID>
6079438

> <PUBCHEM_CONFORMER_RMSD>
0.6

> <PUBCHEM_CONFORMER_DIVERSEORDER>
1
105
72
104
95
28
79
68
3
103
4
53
25
96
15
27
102
9
87
26
67
85
70
54
58
80
98
62
23
94
41
81
29
76
10
57
56
55
24
5
19
45
51
74
21
78
42
13
18
75
90
93
61
91
48
38
60
14
33
65
71
50
8
46
66
69
59
73
17
36
34
92
7
86
83
97
40
88
11
52
39
99
20
89
12
31
22
64
16
32
47
101
77
37
84
63
35
49
6
82
2
43
44
30
100

> <PUBCHEM_MMFF94_PARTIAL_CHARGES>
14
1 -0.65
10 0.66
11 -0.14
12 0.71
2 -0.57
21 0.15
22 0.15
23 0.5
24 0.5
3 -0.65
4 -0.57
7 0.14
8 0.06
9 -0.29

> <PUBCHEM_EFFECTIVE_ROTOR_COUNT>
6

> <PUBCHEM_PHARMACOPHORE_FEATURES>
7
1 1 acceptor
1 2 acceptor
1 3 acceptor
1 4 acceptor
3 1 2 10 anion
3 3 4 12 anion
5 5 6 7 8 9 hydrophobe

> <PUBCHEM_HEAVY_ATOM_COUNT>
12

> <PUBCHEM_ATOM_DEF_STEREO_COUNT>
0

> <PUBCHEM_ATOM_UDEF_STEREO_COUNT>
0

> <PUBCHEM_BOND_DEF_STEREO_COUNT>
1

> <PUBCHEM_BOND_UDEF_STEREO_COUNT>
0

> <PUBCHEM_ISOTOPIC_ATOM_COUNT>
0

> <PUBCHEM_COMPONENT_COUNT>
1

> <PUBCHEM_CACTVS_TAUTO_COUNT>
1

> <PUBCHEM_CONFORMER_ID>
005CC3CE00000001

> <PUBCHEM_MMFF94_ENERGY>
9.0136

> <PUBCHEM_FEATURE_SELFOVERLAP>
35.635

> <PUBCHEM_SHAPE_FINGERPRINT>
10912923 1 18260830418538402515
11287383 113 14907893911987284622
114248 4 13254793546929324238
117890 112 18130790014876094161
13690532 89 11530484432348277781
14123238 8 18335421283166711119
14251718 22 13973955515698344165
14252887 29 16225766277207620522
17834072 33 18335984267379644020
17834076 25 17918275342112168621
18342897 14 18273496766900108185
20605781 2 17275385391508971769
20645477 56 16702294672509712100
20645477 70 12031801253512893508
20767249 13 13984660360542218272
20828058 44 18408886248073066091
21119208 17 11959729373769660254
212847 35 18201718462275556832
22485316 2 17967812739037604195
23402539 116 17967526874836302535
23402655 69 12247674994064439860
23590187 198 17312821567564311147
42 15 17603586313675372350
42788 4 18412545409705775373
449060 50 17203891863899723495
522135 26 12679464179775686260
5374978 207 18040433291866950764

> <PUBCHEM_SHAPE_MULTIPOLES>
223.48
12.66
0.95
0.79
1.16
0
0.04
-1.74
2.64
0.4
-0.04
-0.58
0
-0.46

> <PUBCHEM_SHAPE_SELFOVERLAP>
423.453

> <PUBCHEM_SHAPE_VOLUME>
136.9

> <PUBCHEM_COORDINATE_TYPE>
2
5
10

$$$$
