9860744
  -OEChem-09111618123D

 49 52  0     1  0  0  0  0  0999 V2000
    3.6239    1.5398   -1.5660 O   0  0  0  0  0  0  0  0  0  0  0  0
   -5.4073    0.1458   -1.1826 O   0  0  0  0  0  0  0  0  0  0  0  0
    0.0123    0.3318    0.9255 C   0  0  2  0  0  0  0  0  0  0  0  0
    0.6248   -0.8568    0.1574 C   0  0  1  0  0  0  0  0  0  0  0  0
    2.1562   -1.0286    0.3914 C   0  0  2  0  0  0  0  0  0  0  0  0
    2.9809    0.2823    0.4211 C   0  0  2  0  0  0  0  0  0  0  0  0
   -1.5426    0.4931    0.6662 C   0  0  2  0  0  0  0  0  0  0  0  0
    0.8134    1.6088    0.6265 C   0  0  0  0  0  0  0  0  0  0  0  0
    2.2621    1.4658    1.0671 C   0  0  0  0  0  0  0  0  0  0  0  0
    2.7945   -1.8206   -0.7676 C   0  0  0  0  0  0  0  0  0  0  0  0
   -0.1054   -2.1547    0.5585 C   0  0  0  0  0  0  0  0  0  0  0  0
   -2.2458   -0.8588    0.5077 C   0  0  0  0  0  0  0  0  0  0  0  0
   -1.8506    1.3050   -0.6247 C   0  0  0  0  0  0  0  0  0  0  0  0
    3.2637    0.4824   -1.0630 C   0  0  0  0  0  0  0  0  0  0  0  0
    3.0671   -0.7856   -1.8562 C   0  0  0  0  0  0  0  0  0  0  0  0
   -1.5912   -2.0308    0.4943 C   0  0  0  0  0  0  0  0  0  0  0  0
    4.3410    0.0871    1.1164 C   0  0  0  0  0  0  0  0  0  0  0  0
   -2.1256    1.2359    1.8978 C   0  0  0  0  0  0  0  0  0  0  0  0
   -3.7293   -0.8170    0.2350 C   0  0  0  0  0  0  0  0  0  0  0  0
   -3.3428    1.3776   -0.9750 C   0  0  0  0  0  0  0  0  0  0  0  0
   -3.9993   -0.0024   -1.0297 C   0  0  2  0  0  0  0  0  0  0  0  0
    0.1439    0.1101    1.9962 H   0  0  0  0  0  0  0  0  0  0  0  0
    0.4468   -0.6850   -0.9131 H   0  0  0  0  0  0  0  0  0  0  0  0
    2.3030   -1.5721    1.3338 H   0  0  0  0  0  0  0  0  0  0  0  0
    0.3799    2.4679    1.1492 H   0  0  0  0  0  0  0  0  0  0  0  0
    0.7889    1.8399   -0.4449 H   0  0  0  0  0  0  0  0  0  0  0  0
    2.7906    2.4012    0.8434 H   0  0  0  0  0  0  0  0  0  0  0  0
    2.2805    1.3542    2.1594 H   0  0  0  0  0  0  0  0  0  0  0  0
    2.1707   -2.6369   -1.1422 H   0  0  0  0  0  0  0  0  0  0  0  0
    3.7384   -2.2717   -0.4390 H   0  0  0  0  0  0  0  0  0  0  0  0
    0.1717   -2.4631    1.5740 H   0  0  0  0  0  0  0  0  0  0  0  0
    0.1972   -2.9655   -0.1137 H   0  0  0  0  0  0  0  0  0  0  0  0
   -1.3198    0.8594   -1.4763 H   0  0  0  0  0  0  0  0  0  0  0  0
   -1.4840    2.3340   -0.5294 H   0  0  0  0  0  0  0  0  0  0  0  0
    2.2073   -0.6626   -2.5202 H   0  0  0  0  0  0  0  0  0  0  0  0
    3.9636   -1.0320   -2.4295 H   0  0  0  0  0  0  0  0  0  0  0  0
   -2.1453   -2.9582    0.3733 H   0  0  0  0  0  0  0  0  0  0  0  0
    4.2077   -0.2165    2.1606 H   0  0  0  0  0  0  0  0  0  0  0  0
    4.9608   -0.6691    0.6233 H   0  0  0  0  0  0  0  0  0  0  0  0
    4.9195    1.0186    1.1085 H   0  0  0  0  0  0  0  0  0  0  0  0
   -1.9609    0.6611    2.8172 H   0  0  0  0  0  0  0  0  0  0  0  0
   -1.6588    2.2171    2.0318 H   0  0  0  0  0  0  0  0  0  0  0  0
   -3.2025    1.4126    1.8235 H   0  0  0  0  0  0  0  0  0  0  0  0
   -4.1486   -1.8231    0.1038 H   0  0  0  0  0  0  0  0  0  0  0  0
   -4.2682   -0.4011    1.0942 H   0  0  0  0  0  0  0  0  0  0  0  0
   -3.8702    2.0172   -0.2567 H   0  0  0  0  0  0  0  0  0  0  0  0
   -3.4692    1.8770   -1.9439 H   0  0  0  0  0  0  0  0  0  0  0  0
   -3.6295   -0.5466   -1.9071 H   0  0  0  0  0  0  0  0  0  0  0  0
   -5.7438    0.6342   -0.4119 H   0  0  0  0  0  0  0  0  0  0  0  0
  1 14  2  0  0  0  0
  2 21  1  0  0  0  0
  2 49  1  0  0  0  0
  3  4  1  0  0  0  0
  3  7  1  0  0  0  0
  3  8  1  0  0  0  0
  3 22  1  0  0  0  0
  4  5  1  0  0  0  0
  4 11  1  0  0  0  0
  4 23  1  0  0  0  0
  5  6  1  0  0  0  0
  5 10  1  0  0  0  0
  5 24  1  0  0  0  0
  6  9  1  0  0  0  0
  6 14  1  0  0  0  0
  6 17  1  0  0  0  0
  7 12  1  0  0  0  0
  7 13  1  0  0  0  0
  7 18  1  0  0  0  0
  8  9  1  0  0  0  0
  8 25  1  0  0  0  0
  8 26  1  0  0  0  0
  9 27  1  0  0  0  0
  9 28  1  0  0  0  0
 10 15  1  0  0  0  0
 10 29  1  0  0  0  0
 10 30  1  0  0  0  0
 11 16  1  0  0  0  0
 11 31  1  0  0  0  0
 11 32  1  0  0  0  0
 12 16  2  0  0  0  0
 12 19  1  0  0  0  0
 13 20  1  0  0  0  0
 13 33  1  0  0  0  0
 13 34  1  0  0  0  0
 14 15  1  0  0  0  0
 15 35  1  0  0  0  0
 15 36  1  0  0  0  0
 16 37  1  0  0  0  0
 17 38  1  0  0  0  0
 17 39  1  0  0  0  0
 17 40  1  0  0  0  0
 18 41  1  0  0  0  0
 18 42  1  0  0  0  0
 18 43  1  0  0  0  0
 19 21  1  0  0  0  0
 19 44  1  0  0  0  0
 19 45  1  0  0  0  0
 20 21  1  0  0  0  0
 20 46  1  0  0  0  0
 20 47  1  0  0  0  0
 21 48  1  0  0  0  0
M  END
> <PUBCHEM_COMPOUND_CID>
9860744

> <PUBCHEM_CONFORMER_RMSD>
0.6

> <PUBCHEM_CONFORMER_DIVERSEORDER>
1
5
4
6
8
7
3
2

> <PUBCHEM_MMFF94_PARTIAL_CHARGES>
13
1 -0.57
11 0.14
12 -0.28
14 0.45
15 0.06
16 -0.29
19 0.14
2 -0.68
21 0.28
37 0.15
49 0.4
6 0.06
7 0.14

> <PUBCHEM_EFFECTIVE_ROTOR_COUNT>
1.8

> <PUBCHEM_PHARMACOPHORE_FEATURES>
7
1 1 acceptor
1 2 acceptor
1 2 donor
5 5 6 10 14 15 rings
6 3 4 5 6 8 9 rings
6 3 4 7 11 12 16 rings
6 7 12 13 19 20 21 rings

> <PUBCHEM_HEAVY_ATOM_COUNT>
21

> <PUBCHEM_ATOM_DEF_STEREO_COUNT>
3

> <PUBCHEM_ATOM_UDEF_STEREO_COUNT>
3

> <PUBCHEM_BOND_DEF_STEREO_COUNT>
0

> <PUBCHEM_BOND_UDEF_STEREO_COUNT>
0

> <PUBCHEM_ISOTOPIC_ATOM_COUNT>
0

> <PUBCHEM_COMPONENT_COUNT>
1

> <PUBCHEM_CACTVS_TAUTO_COUNT>
2

> <PUBCHEM_CONFORMER_ID>
0096768800000001

> <PUBCHEM_MMFF94_ENERGY>
56.8821

> <PUBCHEM_FEATURE_SELFOVERLAP>
35.75

> <PUBCHEM_SHAPE_FINGERPRINT>
10366900 7 17418092174041122760
10498660 4 18113625611452348981
10646746 165 18113891650263797916
10759866 29 17895197740118026978
10863032 1 15068635901860453944
11370993 70 18187363233535473366
11640471 11 16081089302708291890
12173636 292 18129957662961686505
12236239 1 15051733114017626283
12553582 1 18271260381755963528
12596599 1 17559682737116364081
12670546 177 18272080647732205039
12824470 246 14548726318592874957
128620 24 17988918972607382677
13140716 1 17910676788925109922
13224815 77 17967260796858437905
13296908 3 16558474093278289360
13583140 156 16660652859687855928
14289901 80 15286224889395006352
15238133 3 14851881405355608662
15375358 24 18272925059629495024
15635459 17 18131070437200539558
16945 1 18201730599336138370
17349148 13 18271515425719939506
1813 80 14692277470288972169
18186145 218 18339091380018732138
19862831 5 18413109433437976415
19868273 293 18040998466054106498
200 152 17632286887412703969
20279233 1 18343299279832516962
20645477 70 17704068512332000396
20715895 44 17751061540972774805
20775530 9 14833902113777092060
21503847 285 14345794924958156414
23402539 116 18338218453595959670
23419403 2 14400653098746893650
23557571 272 17969512682492523042
23559900 14 18409732837920182702
238 59 17917997200035575630
2748010 2 17766280155921217138
2838139 119 15865168245235016023
3286 77 17775001233276656926
3323516 105 18343015584547572855
474 4 15285930229084929524
4990 188 18202274814942699743
5262128 65 17775293737386531252
9709674 26 17988927777253559178

> <PUBCHEM_SHAPE_MULTIPOLES>
420.43
8.23
1.99
1.54
3.06
0.41
-0.3
-0.59
-2.99
-0.24
0.23
-0.31
-0.32
0.43

> <PUBCHEM_SHAPE_SELFOVERLAP>
902.797

> <PUBCHEM_SHAPE_VOLUME>
230.7

> <PUBCHEM_COORDINATE_TYPE>
2
5
10

$$$$
