15030923
  -OEChem-09111623513D

 23 24  0     0  0  0  0  0  0999 V2000
    4.9612   -1.1053    0.0472 O   0  0  0  0  0  0  0  0  0  0  0  0
    4.5681    1.1407   -0.0184 O   0  0  0  0  0  0  0  0  0  0  0  0
   -0.5167    1.1810    0.0003 N   0  0  0  0  0  0  0  0  0  0  0  0
   -1.8019    0.6875    0.0045 C   0  0  0  0  0  0  0  0  0  0  0  0
   -1.7072   -0.7058   -0.0107 C   0  0  0  0  0  0  0  0  0  0  0  0
    0.3848    0.1507   -0.0168 C   0  0  0  0  0  0  0  0  0  0  0  0
   -0.3217   -1.0299   -0.0239 C   0  0  0  0  0  0  0  0  0  0  0  0
   -3.0285    1.3610    0.0203 C   0  0  0  0  0  0  0  0  0  0  0  0
   -2.8934   -1.4662   -0.0104 C   0  0  0  0  0  0  0  0  0  0  0  0
   -4.1916    0.5859    0.0208 C   0  0  0  0  0  0  0  0  0  0  0  0
   -4.1275   -0.8061    0.0058 C   0  0  0  0  0  0  0  0  0  0  0  0
    1.7522    0.4659   -0.0238 C   0  0  0  0  0  0  0  0  0  0  0  0
    2.7556   -0.4492   -0.0016 C   0  0  0  0  0  0  0  0  0  0  0  0
    4.1665   -0.0103    0.0066 C   0  0  0  0  0  0  0  0  0  0  0  0
   -0.2839    2.1652    0.0089 H   0  0  0  0  0  0  0  0  0  0  0  0
    0.1007   -2.0260   -0.0377 H   0  0  0  0  0  0  0  0  0  0  0  0
   -3.0795    2.4446    0.0320 H   0  0  0  0  0  0  0  0  0  0  0  0
   -2.8579   -2.5518   -0.0220 H   0  0  0  0  0  0  0  0  0  0  0  0
    2.0214    1.5207   -0.0390 H   0  0  0  0  0  0  0  0  0  0  0  0
   -5.1608    1.0779    0.0331 H   0  0  0  0  0  0  0  0  0  0  0  0
   -5.0458   -1.3874    0.0064 H   0  0  0  0  0  0  0  0  0  0  0  0
    2.5558   -1.5157    0.0188 H   0  0  0  0  0  0  0  0  0  0  0  0
    5.9132   -0.8682    0.0544 H   0  0  0  0  0  0  0  0  0  0  0  0
  1 14  1  0  0  0  0
  1 23  1  0  0  0  0
  2 14  2  0  0  0  0
  3  4  1  0  0  0  0
  3  6  1  0  0  0  0
  3 15  1  0  0  0  0
  4  5  1  0  0  0  0
  4  8  2  0  0  0  0
  5  7  1  0  0  0  0
  5  9  2  0  0  0  0
  6  7  2  0  0  0  0
  6 12  1  0  0  0  0
  7 16  1  0  0  0  0
  8 10  1  0  0  0  0
  8 17  1  0  0  0  0
  9 11  1  0  0  0  0
  9 18  1  0  0  0  0
 10 11  2  0  0  0  0
 10 20  1  0  0  0  0
 11 21  1  0  0  0  0
 12 13  2  0  0  0  0
 12 19  1  0  0  0  0
 13 14  1  0  0  0  0
 13 22  1  0  0  0  0
M  END
> <PUBCHEM_COMPOUND_CID>
15030923

> <PUBCHEM_CONFORMER_RMSD>
0.6

> <PUBCHEM_CONFORMER_DIVERSEORDER>
1
2

> <PUBCHEM_MMFF94_PARTIAL_CHARGES>
22
1 -0.65
10 -0.15
11 -0.15
12 -0.11
13 -0.14
14 0.71
15 0.27
16 0.15
17 0.15
18 0.15
19 0.15
2 -0.57
20 0.15
21 0.15
22 0.15
23 0.5
3 0.03
4 -0.15
6 -0.2
7 -0.15
8 -0.15
9 -0.15

> <PUBCHEM_EFFECTIVE_ROTOR_COUNT>
2

> <PUBCHEM_PHARMACOPHORE_FEATURES>
7
1 1 acceptor
1 2 acceptor
1 3 cation
1 3 donor
3 1 2 14 anion
5 3 4 5 6 7 rings
6 4 5 8 9 10 11 rings

> <PUBCHEM_HEAVY_ATOM_COUNT>
14

> <PUBCHEM_ATOM_DEF_STEREO_COUNT>
0

> <PUBCHEM_ATOM_UDEF_STEREO_COUNT>
0

> <PUBCHEM_BOND_DEF_STEREO_COUNT>
1

> <PUBCHEM_BOND_UDEF_STEREO_COUNT>
0

> <PUBCHEM_ISOTOPIC_ATOM_COUNT>
0

> <PUBCHEM_COMPONENT_COUNT>
1

> <PUBCHEM_CACTVS_TAUTO_COUNT>
1

> <PUBCHEM_CONFORMER_ID>
00E55A8B00000001

> <PUBCHEM_MMFF94_ENERGY>
25.4659

> <PUBCHEM_FEATURE_SELFOVERLAP>
35.667

> <PUBCHEM_SHAPE_FINGERPRINT>
10014705 185 18259700090889919797
10465860 250 17988922262599921408
10680689 15 17821731615380896701
11401426 45 18409726270650910413
12032990 46 18410858793281330851
12119455 92 17203607073160794159
13167823 11 18408038494575090802
13214271 11 18343581845915465807
13288520 33 18411702075518138022
13690532 89 18407760339243732678
14123238 8 18343584061849603892
14943859 89 18408885135433644627
15196674 1 18410573993762491238
15219456 202 18059583433931599847
15536298 74 18340486785029203336
17804303 29 18341896315927933761
17834072 33 18409450323450168588
18186145 218 16877940572609674444
1986462 14 18409731750659921589
200 152 17704348883828994503
20279233 1 17918000463983841294
20645477 56 18263365802754307541
20645477 70 17774447079627638318
21267235 1 18408613564604350979
22485316 2 18411979174213317770
2297311 6 18272382961742523060
23402539 116 18272926116529222389
23559900 14 18341892987813439632
42 15 18408323272360241102
4214541 1 18410855430290445412
474 4 17169276043035215460
5104073 3 18411136944111532904
573450 72 18334566919724532450
69090 78 18273210910882831870
77779 3 18410575093653946640
9709674 26 18411144632061488958

> <PUBCHEM_SHAPE_MULTIPOLES>
271.39
9.6
1.38
0.6
8.7
0.02
0
0.38
-0.09
-0.59
0
-0.06
0.01
-0.03

> <PUBCHEM_SHAPE_SELFOVERLAP>
590.977

> <PUBCHEM_SHAPE_VOLUME>
148.8

> <PUBCHEM_COORDINATE_TYPE>
2
5
10

$$$$
