169485
  -OEChem-09111620413D

 22 21  0     0  0  0  0  0  0999 V2000
   -0.2586    0.2529    1.5103 O   0  0  0  0  0  0  0  0  0  0  0  0
    2.0800    0.9719   -1.1063 O   0  0  0  0  0  0  0  0  0  0  0  0
    3.9987    0.4725   -0.0030 O   0  0  0  0  0  0  0  0  0  0  0  0
    0.7208   -1.0438   -0.1497 N   0  0  0  0  0  0  0  0  0  0  0  0
   -2.7109    0.0957   -0.1824 C   0  0  0  0  0  0  0  0  0  0  0  0
   -1.6341   -0.7111   -0.1895 C   0  0  0  0  0  0  0  0  0  0  0  0
    2.0851   -0.9517    0.3196 C   0  0  0  0  0  0  0  0  0  0  0  0
   -0.3395   -0.4274    0.4939 C   0  0  0  0  0  0  0  0  0  0  0  0
   -3.9599   -0.3168   -0.9182 C   0  0  0  0  0  0  0  0  0  0  0  0
   -2.8104    1.4365    0.4902 C   0  0  0  0  0  0  0  0  0  0  0  0
    2.8287    0.2214   -0.2651 C   0  0  0  0  0  0  0  0  0  0  0  0
   -1.6758   -1.6485   -0.7403 H   0  0  0  0  0  0  0  0  0  0  0  0
    2.5933   -1.8725    0.0200 H   0  0  0  0  0  0  0  0  0  0  0  0
    2.0854   -0.8563    1.4095 H   0  0  0  0  0  0  0  0  0  0  0  0
    0.5547   -1.5771   -0.9984 H   0  0  0  0  0  0  0  0  0  0  0  0
   -4.8088   -0.3564   -0.2277 H   0  0  0  0  0  0  0  0  0  0  0  0
   -3.8651   -1.3040   -1.3829 H   0  0  0  0  0  0  0  0  0  0  0  0
   -4.1890    0.4025   -1.7114 H   0  0  0  0  0  0  0  0  0  0  0  0
   -3.4149    1.3583    1.3993 H   0  0  0  0  0  0  0  0  0  0  0  0
   -3.2911    2.1592   -0.1787 H   0  0  0  0  0  0  0  0  0  0  0  0
   -1.8411    1.8654    0.7521 H   0  0  0  0  0  0  0  0  0  0  0  0
    2.5857    1.7287   -1.4721 H   0  0  0  0  0  0  0  0  0  0  0  0
  1  8  2  0  0  0  0
  2 11  1  0  0  0  0
  2 22  1  0  0  0  0
  3 11  2  0  0  0  0
  4  7  1  0  0  0  0
  4  8  1  0  0  0  0
  4 15  1  0  0  0  0
  5  6  2  0  0  0  0
  5  9  1  0  0  0  0
  5 10  1  0  0  0  0
  6  8  1  0  0  0  0
  6 12  1  0  0  0  0
  7 11  1  0  0  0  0
  7 13  1  0  0  0  0
  7 14  1  0  0  0  0
  9 16  1  0  0  0  0
  9 17  1  0  0  0  0
  9 18  1  0  0  0  0
 10 19  1  0  0  0  0
 10 20  1  0  0  0  0
 10 21  1  0  0  0  0
M  END
> <PUBCHEM_COMPOUND_CID>
169485

> <PUBCHEM_CONFORMER_RMSD>
0.6

> <PUBCHEM_CONFORMER_DIVERSEORDER>
1
28
17
20
11
13
12
27
22
29
15
18
2
26
4
6
19
30
21
10
3
9
25
8
14
16
23
5
24
7

> <PUBCHEM_MMFF94_PARTIAL_CHARGES>
14
1 -0.57
10 0.14
11 0.66
12 0.15
15 0.37
2 -0.65
22 0.5
3 -0.57
4 -0.73
5 -0.28
6 -0.14
7 0.36
8 0.62
9 0.14

> <PUBCHEM_EFFECTIVE_ROTOR_COUNT>
4

> <PUBCHEM_PHARMACOPHORE_FEATURES>
6
1 1 acceptor
1 2 acceptor
1 3 acceptor
1 4 donor
3 2 3 11 anion
3 5 9 10 hydrophobe

> <PUBCHEM_HEAVY_ATOM_COUNT>
11

> <PUBCHEM_ATOM_DEF_STEREO_COUNT>
0

> <PUBCHEM_ATOM_UDEF_STEREO_COUNT>
0

> <PUBCHEM_BOND_DEF_STEREO_COUNT>
0

> <PUBCHEM_BOND_UDEF_STEREO_COUNT>
0

> <PUBCHEM_ISOTOPIC_ATOM_COUNT>
0

> <PUBCHEM_COMPONENT_COUNT>
1

> <PUBCHEM_CACTVS_TAUTO_COUNT>
2

> <PUBCHEM_CONFORMER_ID>
0002960D00000001

> <PUBCHEM_MMFF94_ENERGY>
15.4508

> <PUBCHEM_FEATURE_SELFOVERLAP>
30.505

> <PUBCHEM_SHAPE_FINGERPRINT>
10149128 111 18260838089355469293
10857977 72 13840277970019430251
11062470 55 18202001036204524470
12162725 195 18333171660817165845
12251169 10 10809342222296085599
124424 183 16226042293127942908
12897270 3 16559035969447584434
12932764 1 17131540679072733323
14325111 11 18411982429550634283
14390081 3 18409451379553122353
14577589 140 11455895750111981737
15775835 57 18340493278703042448
18186145 218 17968382238578911571
20281407 28 12391514161223437775
20645464 45 16153713115444066723
20653085 51 18264785271890771683
20711983 171 18200593588517751261
20871999 31 16845283960763225661
21119208 17 18411135839888309758
21293036 1 17275101751631503503
22169311 14 13479133505587973940
22485316 2 10663821849627423190
23402539 116 18410002261017850311
23552423 10 17985270664473347871
3248919 1 18335417937587946523
528716 315 17418096507589205793

> <PUBCHEM_SHAPE_MULTIPOLES>
203.79
6.71
1.14
0.99
0.62
0.17
0.06
0.99
-1.71
-0.32
0.04
-0.05
0.13
-0.59

> <PUBCHEM_SHAPE_SELFOVERLAP>
389.006

> <PUBCHEM_SHAPE_VOLUME>
124.7

> <PUBCHEM_COORDINATE_TYPE>
2
5
10

$$$$
