53477693
  -OEChem-09111620423D

 66 69  0     1  0  0  0  0  0999 V2000
    2.5567   -2.7836    0.9015 O   0  0  0  0  0  0  0  0  0  0  0  0
    5.0320    2.1070    2.4944 O   0  0  0  0  0  0  0  0  0  0  0  0
   -7.2022    2.2937    0.1065 O   0  0  0  0  0  0  0  0  0  0  0  0
   -5.0365    2.9728    0.0313 O   0  0  0  0  0  0  0  0  0  0  0  0
   -1.1335   -0.7850   -0.3164 C   0  0  1  0  0  0  0  0  0  0  0  0
    0.0937   -1.5545    0.2260 C   0  0  2  0  0  0  0  0  0  0  0  0
    1.6400    0.3576   -0.3430 C   0  0  1  0  0  0  0  0  0  0  0  0
    1.3884   -1.1766   -0.4991 C   0  0  1  0  0  0  0  0  0  0  0  0
    2.9730    0.8143   -1.0567 C   0  0  2  0  0  0  0  0  0  0  0  0
   -2.2387   -1.4286    0.5546 C   0  0  2  0  0  0  0  0  0  0  0  0
   -0.9036    0.7092   -0.0608 C   0  0  0  0  0  0  0  0  0  0  0  0
    0.3948    1.2013   -0.7221 C   0  0  0  0  0  0  0  0  0  0  0  0
   -0.3762   -3.0092    0.2032 C   0  0  0  0  0  0  0  0  0  0  0  0
    4.1762   -0.0286   -0.5067 C   0  0  2  0  0  0  0  0  0  0  0  0
   -1.8751   -2.9305    0.5491 C   0  0  0  0  0  0  0  0  0  0  0  0
    2.6126   -1.9092    0.0397 C   0  0  0  0  0  0  0  0  0  0  0  0
    3.2840    2.3215   -0.8235 C   0  0  0  0  0  0  0  0  0  0  0  0
    3.9303   -1.5390   -0.6023 C   0  0  0  0  0  0  0  0  0  0  0  0
   -1.4095   -1.0163   -1.8247 C   0  0  0  0  0  0  0  0  0  0  0  0
   -3.6778   -1.1663    0.1345 C   0  0  2  0  0  0  0  0  0  0  0  0
    4.5533    0.3462    0.9429 C   0  0  0  0  0  0  0  0  0  0  0  0
    2.8757    0.6266   -2.5925 C   0  0  0  0  0  0  0  0  0  0  0  0
    3.6241    2.6660    0.6210 C   0  0  0  0  0  0  0  0  0  0  0  0
    4.8050    1.8399    1.1146 C   0  0  1  0  0  0  0  0  0  0  0  0
   -4.0386    0.3332    0.1459 C   0  0  0  0  0  0  0  0  0  0  0  0
   -4.6401   -1.9273    1.0540 C   0  0  0  0  0  0  0  0  0  0  0  0
   -5.5461    0.5939    0.1437 C   0  0  0  0  0  0  0  0  0  0  0  0
   -5.8618    2.0716    0.0848 C   0  0  0  0  0  0  0  0  0  0  0  0
    0.2343   -1.2951    1.2887 H   0  0  0  0  0  0  0  0  0  0  0  0
    1.7779    0.5305    0.7337 H   0  0  0  0  0  0  0  0  0  0  0  0
    1.3040   -1.4616   -1.5520 H   0  0  0  0  0  0  0  0  0  0  0  0
   -2.1165   -1.0707    1.5887 H   0  0  0  0  0  0  0  0  0  0  0  0
   -0.8454    0.9045    1.0177 H   0  0  0  0  0  0  0  0  0  0  0  0
   -1.7087    1.3340   -0.4482 H   0  0  0  0  0  0  0  0  0  0  0  0
    0.5428    2.2418   -0.4125 H   0  0  0  0  0  0  0  0  0  0  0  0
    0.2611    1.2199   -1.8079 H   0  0  0  0  0  0  0  0  0  0  0  0
   -0.2333   -3.4615   -0.7846 H   0  0  0  0  0  0  0  0  0  0  0  0
    0.1549   -3.6310    0.9300 H   0  0  0  0  0  0  0  0  0  0  0  0
    5.0589    0.1930   -1.1240 H   0  0  0  0  0  0  0  0  0  0  0  0
   -2.4488   -3.4985   -0.1921 H   0  0  0  0  0  0  0  0  0  0  0  0
   -2.0651   -3.3779    1.5312 H   0  0  0  0  0  0  0  0  0  0  0  0
    4.1428    2.6096   -1.4464 H   0  0  0  0  0  0  0  0  0  0  0  0
    2.4564    2.9527   -1.1646 H   0  0  0  0  0  0  0  0  0  0  0  0
    4.7361   -2.0939   -0.1081 H   0  0  0  0  0  0  0  0  0  0  0  0
    3.9058   -1.8749   -1.6442 H   0  0  0  0  0  0  0  0  0  0  0  0
   -2.2394   -0.3945   -2.1763 H   0  0  0  0  0  0  0  0  0  0  0  0
   -0.5507   -0.7656   -2.4532 H   0  0  0  0  0  0  0  0  0  0  0  0
   -1.6679   -2.0558   -2.0492 H   0  0  0  0  0  0  0  0  0  0  0  0
   -3.8507   -1.5518   -0.8782 H   0  0  0  0  0  0  0  0  0  0  0  0
    3.7808    0.0227    1.6519 H   0  0  0  0  0  0  0  0  0  0  0  0
    5.4565   -0.2022    1.2420 H   0  0  0  0  0  0  0  0  0  0  0  0
    2.1188    1.2849   -3.0309 H   0  0  0  0  0  0  0  0  0  0  0  0
    3.8289    0.8737   -3.0752 H   0  0  0  0  0  0  0  0  0  0  0  0
    2.6303   -0.3974   -2.8837 H   0  0  0  0  0  0  0  0  0  0  0  0
    3.8691    3.7324    0.7007 H   0  0  0  0  0  0  0  0  0  0  0  0
    2.7559    2.5201    1.2745 H   0  0  0  0  0  0  0  0  0  0  0  0
    5.7089    2.1311    0.5662 H   0  0  0  0  0  0  0  0  0  0  0  0
   -3.6291    0.8102   -0.7487 H   0  0  0  0  0  0  0  0  0  0  0  0
   -3.5970    0.8251    1.0215 H   0  0  0  0  0  0  0  0  0  0  0  0
   -5.6672   -1.9097    0.6755 H   0  0  0  0  0  0  0  0  0  0  0  0
   -4.3850   -2.9892    1.1255 H   0  0  0  0  0  0  0  0  0  0  0  0
   -4.6309   -1.5187    2.0705 H   0  0  0  0  0  0  0  0  0  0  0  0
   -6.0081    0.2284    1.0666 H   0  0  0  0  0  0  0  0  0  0  0  0
   -6.0119    0.1118   -0.7226 H   0  0  0  0  0  0  0  0  0  0  0  0
    5.8016    1.5820    2.7730 H   0  0  0  0  0  0  0  0  0  0  0  0
   -7.4145    3.2508    0.0721 H   0  0  0  0  0  0  0  0  0  0  0  0
  1 16  2  0  0  0  0
  2 24  1  0  0  0  0
  2 65  1  0  0  0  0
  3 28  1  0  0  0  0
  3 66  1  0  0  0  0
  4 28  2  0  0  0  0
  5  6  1  0  0  0  0
  5 10  1  0  0  0  0
  5 11  1  0  0  0  0
  5 19  1  0  0  0  0
  6  8  1  0  0  0  0
  6 13  1  0  0  0  0
  6 29  1  0  0  0  0
  7  8  1  0  0  0  0
  7  9  1  0  0  0  0
  7 12  1  0  0  0  0
  7 30  1  0  0  0  0
  8 16  1  0  0  0  0
  8 31  1  0  0  0  0
  9 14  1  0  0  0  0
  9 17  1  0  0  0  0
  9 22  1  0  0  0  0
 10 15  1  0  0  0  0
 10 20  1  0  0  0  0
 10 32  1  0  0  0  0
 11 12  1  0  0  0  0
 11 33  1  0  0  0  0
 11 34  1  0  0  0  0
 12 35  1  0  0  0  0
 12 36  1  0  0  0  0
 13 15  1  0  0  0  0
 13 37  1  0  0  0  0
 13 38  1  0  0  0  0
 14 18  1  0  0  0  0
 14 21  1  0  0  0  0
 14 39  1  0  0  0  0
 15 40  1  0  0  0  0
 15 41  1  0  0  0  0
 16 18  1  0  0  0  0
 17 23  1  0  0  0  0
 17 42  1  0  0  0  0
 17 43  1  0  0  0  0
 18 44  1  0  0  0  0
 18 45  1  0  0  0  0
 19 46  1  0  0  0  0
 19 47  1  0  0  0  0
 19 48  1  0  0  0  0
 20 25  1  0  0  0  0
 20 26  1  0  0  0  0
 20 49  1  0  0  0  0
 21 24  1  0  0  0  0
 21 50  1  0  0  0  0
 21 51  1  0  0  0  0
 22 52  1  0  0  0  0
 22 53  1  0  0  0  0
 22 54  1  0  0  0  0
 23 24  1  0  0  0  0
 23 55  1  0  0  0  0
 23 56  1  0  0  0  0
 24 57  1  0  0  0  0
 25 27  1  0  0  0  0
 25 58  1  0  0  0  0
 25 59  1  0  0  0  0
 26 60  1  0  0  0  0
 26 61  1  0  0  0  0
 26 62  1  0  0  0  0
 27 28  1  0  0  0  0
 27 63  1  0  0  0  0
 27 64  1  0  0  0  0
M  END
> <PUBCHEM_COMPOUND_CID>
53477693

> <PUBCHEM_CONFORMER_RMSD>
0.8

> <PUBCHEM_CONFORMER_DIVERSEORDER>
1
5
16
4
15
8
2
11
12
7
3
10
9
14
6
13

> <PUBCHEM_MMFF94_PARTIAL_CHARGES>
12
1 -0.57
16 0.45
18 0.06
2 -0.68
24 0.28
27 0.06
28 0.66
3 -0.65
4 -0.57
65 0.4
66 0.5
8 0.06

> <PUBCHEM_EFFECTIVE_ROTOR_COUNT>
6

> <PUBCHEM_PHARMACOPHORE_FEATURES>
11
1 1 acceptor
1 2 acceptor
1 2 donor
1 26 hydrophobe
1 3 acceptor
1 4 acceptor
3 3 4 28 anion
5 5 6 10 13 15 rings
6 5 6 7 8 11 12 rings
6 7 8 9 14 16 18 rings
6 9 14 17 21 23 24 rings

> <PUBCHEM_HEAVY_ATOM_COUNT>
28

> <PUBCHEM_ATOM_DEF_STEREO_COUNT>
8

> <PUBCHEM_ATOM_UDEF_STEREO_COUNT>
1

> <PUBCHEM_BOND_DEF_STEREO_COUNT>
0

> <PUBCHEM_BOND_UDEF_STEREO_COUNT>
0

> <PUBCHEM_ISOTOPIC_ATOM_COUNT>
0

> <PUBCHEM_COMPONENT_COUNT>
1

> <PUBCHEM_CACTVS_TAUTO_COUNT>
3

> <PUBCHEM_CONFORMER_ID>
0330013D00000001

> <PUBCHEM_MMFF94_ENERGY>
91.5237

> <PUBCHEM_FEATURE_SELFOVERLAP>
56.01

> <PUBCHEM_SHAPE_FINGERPRINT>
10411042 1 17326896175742411043
11069576 57 14116975517025979052
11089746 13 18273494563402427021
11578080 2 17917134104645250776
11961588 58 13901619801311470688
1200032 147 17169292475590594348
12107183 9 18188765042199453130
12403259 118 18260830461846823479
12403259 415 18341342162115026931
12422481 6 17749378248304215381
12633257 1 16660360423928056466
12925494 130 18335422336130011649
12969540 114 16988851609085802199
13140716 1 18335135337134696827
13224815 77 18196936797727978062
13878862 14 18042952191602202909
13965767 371 18114448038082145382
14178342 30 18119246413931358662
14223995 32 18119240671608122037
14466204 15 18338232785986645081
14739800 52 18340757170436915977
14790565 3 17757847988637993916
15196674 1 18335709347035080695
15238133 3 18333737939723832036
17810953 82 18336267855638656213
1813 80 16226328226138614023
20511986 3 18271795826954682871
20715895 44 18411698764193376481
21033648 29 18410294743726663233
21279426 13 18340495482300548071
21304253 335 18335706030971922095
21421861 104 17604139338365749954
21452121 103 18412260644910892042
22149856 69 18192736603565772467
22182313 1 17677595493602941814
23559900 14 18409456860332929598
2838139 119 18272086034001092981
335352 9 18335426707906156878
3459 39 18339060666945261601
34797466 226 17274827969500298519
350125 39 18261960648167938172
3680242 22 18114177519308706970
3862424 121 12469747614018948184
4340502 62 18409731751081992513
495365 180 17989487433304694126
5104073 3 18259987063688474971
7064713 232 18260548965089438503

> <PUBCHEM_SHAPE_MULTIPOLES>
552.75
13.14
3.53
1.45
14.67
0.03
-0.24
-10.75
3.54
1.56
0.86
-2.03
-0.42
1.15

> <PUBCHEM_SHAPE_SELFOVERLAP>
1162.866

> <PUBCHEM_SHAPE_VOLUME>
309.8

> <PUBCHEM_COORDINATE_TYPE>
2
5
10

$$$$
