5461103
  -OEChem-09111623283D

 35 36  0     1  0  0  0  0  0999 V2000
    1.9002   -1.8814    0.0608 O   0  0  0  0  0  0  0  0  0  0  0  0
   -2.6207    2.2106    0.3192 O   0  0  0  0  0  0  0  0  0  0  0  0
   -4.5738    2.3029   -0.8309 O   0  0  0  0  0  0  0  0  0  0  0  0
    5.3458    2.4201    0.1370 O   0  0  0  0  0  0  0  0  0  0  0  0
   -5.5318    0.2437    0.7097 N   0  0  0  0  0  0  0  0  0  0  0  0
   -3.6191   -0.8090   -0.4076 C   0  0  0  0  0  0  0  0  0  0  0  0
   -4.0867    0.3300    0.5119 C   0  0  1  0  0  0  0  0  0  0  0  0
   -2.1405   -1.0960   -0.2818 C   0  0  0  0  0  0  0  0  0  0  0  0
   -1.2481   -0.4247   -1.1008 C   0  0  0  0  0  0  0  0  0  0  0  0
   -1.7081   -2.0252    0.6495 C   0  0  0  0  0  0  0  0  0  0  0  0
    0.5686   -1.6236   -0.0521 C   0  0  0  0  0  0  0  0  0  0  0  0
    0.1163   -0.6905   -0.9851 C   0  0  0  0  0  0  0  0  0  0  0  0
   -0.3437   -2.2909    0.7652 C   0  0  0  0  0  0  0  0  0  0  0  0
   -3.8112    1.6981   -0.0879 C   0  0  0  0  0  0  0  0  0  0  0  0
    2.7657   -0.8006    0.0797 C   0  0  0  0  0  0  0  0  0  0  0  0
    2.4584    0.2952    0.8660 C   0  0  0  0  0  0  0  0  0  0  0  0
    3.9156   -0.8446   -0.6878 C   0  0  0  0  0  0  0  0  0  0  0  0
    3.3304    1.3838    0.8853 C   0  0  0  0  0  0  0  0  0  0  0  0
    4.7877    0.2439   -0.6684 C   0  0  0  0  0  0  0  0  0  0  0  0
    4.4950    1.3581    0.1181 C   0  0  0  0  0  0  0  0  0  0  0  0
   -3.8604   -0.5870   -1.4562 H   0  0  0  0  0  0  0  0  0  0  0  0
   -4.1617   -1.7359   -0.1743 H   0  0  0  0  0  0  0  0  0  0  0  0
   -3.6148    0.2767    1.4997 H   0  0  0  0  0  0  0  0  0  0  0  0
   -1.5906    0.2979   -1.8357 H   0  0  0  0  0  0  0  0  0  0  0  0
   -2.4106   -2.5480    1.2921 H   0  0  0  0  0  0  0  0  0  0  0  0
    0.8014   -0.1730   -1.6514 H   0  0  0  0  0  0  0  0  0  0  0  0
    0.0028   -3.0178    1.4947 H   0  0  0  0  0  0  0  0  0  0  0  0
   -5.7628   -0.6438    1.1554 H   0  0  0  0  0  0  0  0  0  0  0  0
   -6.0048    0.2314   -0.1938 H   0  0  0  0  0  0  0  0  0  0  0  0
    1.5705    0.3298    1.4904 H   0  0  0  0  0  0  0  0  0  0  0  0
    4.1443   -1.7112   -1.3008 H   0  0  0  0  0  0  0  0  0  0  0  0
    3.0997    2.2469    1.5039 H   0  0  0  0  0  0  0  0  0  0  0  0
    5.6916    0.2114   -1.2708 H   0  0  0  0  0  0  0  0  0  0  0  0
   -2.4556    3.0992   -0.0621 H   0  0  0  0  0  0  0  0  0  0  0  0
    6.0978    2.2319   -0.4504 H   0  0  0  0  0  0  0  0  0  0  0  0
  1 11  1  0  0  0  0
  1 15  1  0  0  0  0
  2 14  1  0  0  0  0
  2 34  1  0  0  0  0
  3 14  2  0  0  0  0
  4 20  1  0  0  0  0
  4 35  1  0  0  0  0
  5  7  1  0  0  0  0
  5 28  1  0  0  0  0
  5 29  1  0  0  0  0
  6  7  1  0  0  0  0
  6  8  1  0  0  0  0
  6 21  1  0  0  0  0
  6 22  1  0  0  0  0
  7 14  1  0  0  0  0
  7 23  1  0  0  0  0
  8  9  2  0  0  0  0
  8 10  1  0  0  0  0
  9 12  1  0  0  0  0
  9 24  1  0  0  0  0
 10 13  2  0  0  0  0
 10 25  1  0  0  0  0
 11 12  2  0  0  0  0
 11 13  1  0  0  0  0
 12 26  1  0  0  0  0
 13 27  1  0  0  0  0
 15 16  2  0  0  0  0
 15 17  1  0  0  0  0
 16 18  1  0  0  0  0
 16 30  1  0  0  0  0
 17 19  2  0  0  0  0
 17 31  1  0  0  0  0
 18 20  2  0  0  0  0
 18 32  1  0  0  0  0
 19 20  1  0  0  0  0
 19 33  1  0  0  0  0
M  END
> <PUBCHEM_COMPOUND_CID>
5461103

> <PUBCHEM_CONFORMER_RMSD>
0.8

> <PUBCHEM_CONFORMER_DIVERSEORDER>
1
20
8
2
24
11
7
23
5
15
12
21
22
13
10
18
16
4
9
6
3
14
19
17

> <PUBCHEM_MMFF94_PARTIAL_CHARGES>
32
1 -0.17
10 -0.15
11 0.08
12 -0.15
13 -0.15
14 0.66
15 0.08
16 -0.15
17 -0.15
18 -0.15
19 -0.15
2 -0.65
20 0.08
24 0.15
25 0.15
26 0.15
27 0.15
28 0.36
29 0.36
3 -0.57
30 0.15
31 0.15
32 0.15
33 0.15
34 0.5
35 0.45
4 -0.53
5 -0.99
6 0.14
7 0.33
8 -0.14
9 -0.15

> <PUBCHEM_EFFECTIVE_ROTOR_COUNT>
5

> <PUBCHEM_PHARMACOPHORE_FEATURES>
9
1 1 acceptor
1 2 acceptor
1 3 acceptor
1 4 donor
1 5 cation
1 5 donor
3 2 3 14 anion
6 15 16 17 18 19 20 rings
6 8 9 10 11 12 13 rings

> <PUBCHEM_HEAVY_ATOM_COUNT>
20

> <PUBCHEM_ATOM_DEF_STEREO_COUNT>
1

> <PUBCHEM_ATOM_UDEF_STEREO_COUNT>
0

> <PUBCHEM_BOND_DEF_STEREO_COUNT>
0

> <PUBCHEM_BOND_UDEF_STEREO_COUNT>
0

> <PUBCHEM_ISOTOPIC_ATOM_COUNT>
0

> <PUBCHEM_COMPONENT_COUNT>
1

> <PUBCHEM_CACTVS_TAUTO_COUNT>
2

> <PUBCHEM_CONFORMER_ID>
0053546F00000001

> <PUBCHEM_MMFF94_ENERGY>
56.5752

> <PUBCHEM_FEATURE_SELFOVERLAP>
45.728

> <PUBCHEM_SHAPE_FINGERPRINT>
10498660 4 18411979139553171960
11405975 8 18333728031609138362
11595378 159 17313096419654095325
11796584 16 11023825037710357293
12363563 72 10447644742365729118
12403259 415 18335989666654772965
12596602 18 16805608100617609465
12633257 1 14851902334783936937
12892183 10 17821732702419293971
14123255 352 18408882910835920093
1420 369 9079108981687278765
14787075 74 18412823603865633195
14848178 5 8502366715963519897
14848178 96 18338792312829765713
15163728 17 17346056484236190021
15196674 1 18411980251938859720
15209294 21 18260829284904660143
15239154 128 18411699867915347965
17834072 32 18410856517007088969
17868525 174 17756131294388127010
17959699 21 18413672417893548018
193927 3 10881679070522501432
19862831 5 14045739309639382975
20374829 77 10592043544433269895
20645477 56 18341903995461756599
20645477 70 17274835644707375966
21652331 79 18412545397016266713
21864079 5 18409721846470676667
221357 26 18060701680043164392
23227448 37 18341611555390763093
23402655 69 17917713543542383006
23559900 14 18198341749870596886
26918003 58 12035712233167477494
2838139 119 18271799095071705245
316301 35 9439141827353153204
4028521 119 18343864407191893553
474 4 18259987080340563039
5104073 3 18114179709483792659
633830 44 18411974754718721222
6442390 28 18334017189738983362
76465 3 9727364519391056094
7808743 9 18337106894970001424

> <PUBCHEM_SHAPE_MULTIPOLES>
383.13
11.5
2.56
0.98
0.81
0.63
-0.05
8
0.09
-0.51
0.27
-0.02
-0.06
0.68

> <PUBCHEM_SHAPE_SELFOVERLAP>
820.284

> <PUBCHEM_SHAPE_VOLUME>
211.8

> <PUBCHEM_COORDINATE_TYPE>
2
5
10

$$$$
