80642
  -OEChem-09121610203D

 16 16  0     0  0  0  0  0  0999 V2000
    0.2941    0.6033   -0.2485 O   0  0  0  0  0  0  0  0  0  0  0  0
    3.2161    0.8444    0.7789 O   0  0  0  0  0  0  0  0  0  0  0  0
   -3.0798   -0.4991    0.2640 O   0  0  0  0  0  0  0  0  0  0  0  0
   -2.3257    1.6152   -0.0929 O   0  0  0  0  0  0  0  0  0  0  0  0
    1.3913   -0.1984   -0.2642 C   0  0  0  0  0  0  0  0  0  0  0  0
    1.0342   -1.5102   -0.0547 C   0  0  0  0  0  0  0  0  0  0  0  0
   -0.7751   -0.2056   -0.0268 C   0  0  0  0  0  0  0  0  0  0  0  0
    2.6808    0.4691   -0.4918 C   0  0  0  0  0  0  0  0  0  0  0  0
   -0.3727   -1.5148    0.0993 C   0  0  0  0  0  0  0  0  0  0  0  0
   -2.0631    0.3961    0.0368 C   0  0  0  0  0  0  0  0  0  0  0  0
    1.7023   -2.3587   -0.0172 H   0  0  0  0  0  0  0  0  0  0  0  0
    3.3945   -0.2042   -0.9754 H   0  0  0  0  0  0  0  0  0  0  0  0
    2.5792    1.3657   -1.1108 H   0  0  0  0  0  0  0  0  0  0  0  0
   -1.0060   -2.3719    0.2800 H   0  0  0  0  0  0  0  0  0  0  0  0
    2.6283    1.5216    1.1561 H   0  0  0  0  0  0  0  0  0  0  0  0
   -3.9525   -0.0523    0.3015 H   0  0  0  0  0  0  0  0  0  0  0  0
  1  5  1  0  0  0  0
  1  7  1  0  0  0  0
  2  8  1  0  0  0  0
  2 15  1  0  0  0  0
  3 10  1  0  0  0  0
  3 16  1  0  0  0  0
  4 10  2  0  0  0  0
  5  6  2  0  0  0  0
  5  8  1  0  0  0  0
  6  9  1  0  0  0  0
  6 11  1  0  0  0  0
  7  9  2  0  0  0  0
  7 10  1  0  0  0  0
  8 12  1  0  0  0  0
  8 13  1  0  0  0  0
  9 14  1  0  0  0  0
M  END
> <PUBCHEM_COMPOUND_CID>
80642

> <PUBCHEM_CONFORMER_RMSD>
0.4

> <PUBCHEM_CONFORMER_DIVERSEORDER>
1
6
3
8
5
4
7
2

> <PUBCHEM_MMFF94_PARTIAL_CHARGES>
14
1 -0.28
10 0.81
11 0.15
14 0.15
15 0.4
16 0.5
2 -0.68
3 -0.65
4 -0.57
5 -0.04
6 -0.15
7 0.05
8 0.46
9 -0.15

> <PUBCHEM_EFFECTIVE_ROTOR_COUNT>
2

> <PUBCHEM_PHARMACOPHORE_FEATURES>
7
1 1 acceptor
1 2 acceptor
1 2 donor
1 3 acceptor
1 4 acceptor
3 3 4 10 anion
5 1 5 6 7 9 rings

> <PUBCHEM_HEAVY_ATOM_COUNT>
10

> <PUBCHEM_ATOM_DEF_STEREO_COUNT>
0

> <PUBCHEM_ATOM_UDEF_STEREO_COUNT>
0

> <PUBCHEM_BOND_DEF_STEREO_COUNT>
0

> <PUBCHEM_BOND_UDEF_STEREO_COUNT>
0

> <PUBCHEM_ISOTOPIC_ATOM_COUNT>
0

> <PUBCHEM_COMPONENT_COUNT>
1

> <PUBCHEM_CACTVS_TAUTO_COUNT>
1

> <PUBCHEM_CONFORMER_ID>
00013B0200000001

> <PUBCHEM_MMFF94_ENERGY>
6.8109

> <PUBCHEM_FEATURE_SELFOVERLAP>
35.583

> <PUBCHEM_SHAPE_FINGERPRINT>
10857977 72 18187089485362819833
12932764 1 17989205936483810367
14325111 11 18410013217178579300
14390081 3 18342457019349760561
15310529 11 15195299602778251927
16945 1 18335990868792065071
21028194 46 18413111662562906794
21040471 1 18408610261911520598
23552423 10 18117284657443311367
2748010 2 18263933141789453735
3248919 1 17313396612156018263
5084963 1 18341344330741046062

> <PUBCHEM_SHAPE_MULTIPOLES>
182.32
4.33
1.46
0.67
0.2
0.24
-0.02
-1.61
-0.46
-0.18
-0.03
0.25
-0.04
0.2

> <PUBCHEM_SHAPE_SELFOVERLAP>
379.531

> <PUBCHEM_SHAPE_VOLUME>
105

> <PUBCHEM_COORDINATE_TYPE>
2
5
10

$$$$
