72361
  -OEChem-09111622263D

 29 29  0     1  0  0  0  0  0999 V2000
    3.4632    0.1356   -0.2812 S   0  0  0  0  0  0  0  0  0  0  0  0
   -0.6301    1.2166    0.4652 O   0  0  0  0  0  0  0  0  0  0  0  0
   -0.4716   -2.4390    0.7945 O   0  0  0  0  0  0  0  0  0  0  0  0
   -2.6481   -2.0334   -1.0428 O   0  0  0  0  0  0  0  0  0  0  0  0
   -2.3386    2.6716   -0.1558 O   0  0  0  0  0  0  0  0  0  0  0  0
    1.8357    0.0987   -0.1058 O   0  0  0  0  0  0  0  0  0  0  0  0
    3.6685    0.4569   -1.8674 O   0  0  0  0  0  0  0  0  0  0  0  0
    3.9613    1.2768    0.4638 O   0  0  0  0  0  0  0  0  0  0  0  0
    3.9919   -1.1907   -0.0225 O   0  0  0  0  0  0  0  0  0  0  0  0
   -4.1247    0.4362   -0.5038 N   0  0  0  0  0  0  0  0  0  0  0  0
   -2.2628   -1.0894   -0.0419 C   0  0  1  0  0  0  0  0  0  0  0  0
   -0.7494   -1.1872    0.1725 C   0  0  1  0  0  0  0  0  0  0  0  0
   -2.6638    0.3155   -0.5054 C   0  0  2  0  0  0  0  0  0  0  0  0
   -0.2524   -0.0327    1.0479 C   0  0  1  0  0  0  0  0  0  0  0  0
   -2.0461    1.3897    0.3978 C   0  0  1  0  0  0  0  0  0  0  0  0
    1.2669   -0.0254    1.1850 C   0  0  0  0  0  0  0  0  0  0  0  0
   -0.2561   -1.1857   -0.8075 H   0  0  0  0  0  0  0  0  0  0  0  0
   -2.7863   -1.3699    0.8808 H   0  0  0  0  0  0  0  0  0  0  0  0
   -2.3269    0.4725   -1.5382 H   0  0  0  0  0  0  0  0  0  0  0  0
   -0.6777   -0.1066    2.0575 H   0  0  0  0  0  0  0  0  0  0  0  0
   -2.4657    1.3513    1.4116 H   0  0  0  0  0  0  0  0  0  0  0  0
    1.6325   -0.9367    1.6688 H   0  0  0  0  0  0  0  0  0  0  0  0
    1.5777    0.8377    1.7844 H   0  0  0  0  0  0  0  0  0  0  0  0
   -4.4809    0.3058    0.4425 H   0  0  0  0  0  0  0  0  0  0  0  0
   -4.5282   -0.3153   -1.0622 H   0  0  0  0  0  0  0  0  0  0  0  0
    0.4891   -2.5813    0.7583 H   0  0  0  0  0  0  0  0  0  0  0  0
   -2.1909   -1.8013   -1.8690 H   0  0  0  0  0  0  0  0  0  0  0  0
   -2.2965    3.3131    0.5736 H   0  0  0  0  0  0  0  0  0  0  0  0
    3.1239   -0.0891   -2.4818 H   0  0  0  0  0  0  0  0  0  0  0  0
  1  6  1  0  0  0  0
  1  7  1  0  0  0  0
  1  8  2  0  0  0  0
  1  9  2  0  0  0  0
  2 14  1  0  0  0  0
  2 15  1  0  0  0  0
  3 12  1  0  0  0  0
  3 26  1  0  0  0  0
  4 11  1  0  0  0  0
  4 27  1  0  0  0  0
  5 15  1  0  0  0  0
  5 28  1  0  0  0  0
  6 16  1  0  0  0  0
  7 29  1  0  0  0  0
 10 13  1  0  0  0  0
 10 24  1  0  0  0  0
 10 25  1  0  0  0  0
 11 12  1  0  0  0  0
 11 13  1  0  0  0  0
 11 18  1  0  0  0  0
 12 14  1  0  0  0  0
 12 17  1  0  0  0  0
 13 15  1  0  0  0  0
 13 19  1  0  0  0  0
 14 16  1  0  0  0  0
 14 20  1  0  0  0  0
 15 21  1  0  0  0  0
 16 22  1  0  0  0  0
 16 23  1  0  0  0  0
M  END
> <PUBCHEM_COMPOUND_CID>
72361

> <PUBCHEM_CONFORMER_RMSD>
0.6

> <PUBCHEM_CONFORMER_DIVERSEORDER>
2
20
8
29
17
26
4
27
6
3
19
10
24
5
18
11
23
21
15
22
1
14
28
12
9
16
25
7
13

> <PUBCHEM_MMFF94_PARTIAL_CHARGES>
22
1 1.67
10 -0.99
11 0.28
12 0.28
13 0.27
14 0.28
15 0.56
16 0.28
2 -0.56
24 0.36
25 0.36
26 0.4
27 0.4
28 0.4
29 0.5
3 -0.68
4 -0.68
5 -0.68
6 -0.46
7 -0.68
8 -0.65
9 -0.65

> <PUBCHEM_EFFECTIVE_ROTOR_COUNT>
4.2

> <PUBCHEM_PHARMACOPHORE_FEATURES>
14
1 10 cation
1 10 donor
1 2 acceptor
1 3 acceptor
1 3 donor
1 4 acceptor
1 4 donor
1 5 acceptor
1 5 donor
1 7 acceptor
1 8 acceptor
1 9 acceptor
4 1 7 8 9 anion
6 2 11 12 13 14 15 rings

> <PUBCHEM_HEAVY_ATOM_COUNT>
16

> <PUBCHEM_ATOM_DEF_STEREO_COUNT>
5

> <PUBCHEM_ATOM_UDEF_STEREO_COUNT>
0

> <PUBCHEM_BOND_DEF_STEREO_COUNT>
0

> <PUBCHEM_BOND_UDEF_STEREO_COUNT>
0

> <PUBCHEM_ISOTOPIC_ATOM_COUNT>
0

> <PUBCHEM_COMPONENT_COUNT>
1

> <PUBCHEM_CACTVS_TAUTO_COUNT>
1

> <PUBCHEM_CONFORMER_ID>
00011AA900000002

> <PUBCHEM_MMFF94_ENERGY>
23.3155

> <PUBCHEM_FEATURE_SELFOVERLAP>
71.162

> <PUBCHEM_SHAPE_FINGERPRINT>
11127187 94 18131074861074980631
12119455 92 13912592871105317153
12173636 292 18335698330000543221
12824470 246 12318865030209991173
12932764 1 18341911696532706152
14123260 362 17677068922396972716
15502708 8 18342455967272495275
15775835 57 17676483934496759453
16945 1 18269251535789411833
18186145 218 18130514050305403592
200 152 15913330174103181204
20279233 1 17632297878471430110
20645476 183 17894906334818556891
20645477 56 18408602586894815448
20645477 70 16702028539441117388
20871999 31 18339634663643985455
21524375 3 18117844287265680785
22802520 49 18201153359910400643
23402539 116 18338222860490666942
23526113 38 17561362877030988818
23557571 272 18127691741153015984
23559900 14 18272081717532320528
27216 239 12974174067706475566
2748010 2 18051669325850487233
4028521 119 18335695027308115445
53812653 8 18337382743618558721
93112 12 18411421717733960680
9709674 26 18341617044618027798

> <PUBCHEM_SHAPE_MULTIPOLES>
281.19
7.13
2.07
1.1
5.44
0.07
0.19
-1.13
2.38
-1.54
-0.04
0.56
0.06
-0.26

> <PUBCHEM_SHAPE_SELFOVERLAP>
550.666

> <PUBCHEM_SHAPE_VOLUME>
169.1

> <PUBCHEM_COORDINATE_TYPE>
2
5
10

$$$$
