68138
  -OEChem-09131604213D

 19 19  0     0  0  0  0  0  0999 V2000
    3.1833    0.7640    0.0004 O   0  0  0  0  0  0  0  0  0  0  0  0
   -3.0646    0.9633    0.0009 O   0  0  0  0  0  0  0  0  0  0  0  0
   -2.8793   -1.3022   -0.0001 O   0  0  0  0  0  0  0  0  0  0  0  0
    1.3573   -0.7886    0.0004 C   0  0  0  0  0  0  0  0  0  0  0  0
   -0.0180   -1.0217    0.0001 C   0  0  0  0  0  0  0  0  0  0  0  0
   -0.9075    0.0528   -0.0004 C   0  0  0  0  0  0  0  0  0  0  0  0
    1.8430    0.5189    0.0001 C   0  0  0  0  0  0  0  0  0  0  0  0
   -0.4218    1.3603   -0.0005 C   0  0  0  0  0  0  0  0  0  0  0  0
    0.9536    1.5933   -0.0004 C   0  0  0  0  0  0  0  0  0  0  0  0
    2.2952   -1.9502   -0.0002 C   0  0  0  0  0  0  0  0  0  0  0  0
   -2.3413   -0.1900   -0.0003 C   0  0  0  0  0  0  0  0  0  0  0  0
   -0.3930   -2.0425    0.0001 H   0  0  0  0  0  0  0  0  0  0  0  0
   -1.0785    2.2258   -0.0009 H   0  0  0  0  0  0  0  0  0  0  0  0
    1.3186    2.6170   -0.0005 H   0  0  0  0  0  0  0  0  0  0  0  0
    2.9260   -1.9289   -0.8950 H   0  0  0  0  0  0  0  0  0  0  0  0
    2.9330   -1.9245    0.8895 H   0  0  0  0  0  0  0  0  0  0  0  0
    1.7628   -2.9073    0.0045 H   0  0  0  0  0  0  0  0  0  0  0  0
    3.3301    1.7254    0.0002 H   0  0  0  0  0  0  0  0  0  0  0  0
   -4.0299    0.7886    0.0016 H   0  0  0  0  0  0  0  0  0  0  0  0
  1  7  1  0  0  0  0
  1 18  1  0  0  0  0
  2 11  1  0  0  0  0
  2 19  1  0  0  0  0
  3 11  2  0  0  0  0
  4  5  1  0  0  0  0
  4  7  2  0  0  0  0
  4 10  1  0  0  0  0
  5  6  2  0  0  0  0
  5 12  1  0  0  0  0
  6  8  1  0  0  0  0
  6 11  1  0  0  0  0
  7  9  1  0  0  0  0
  8  9  2  0  0  0  0
  8 13  1  0  0  0  0
  9 14  1  0  0  0  0
 10 15  1  0  0  0  0
 10 16  1  0  0  0  0
 10 17  1  0  0  0  0
M  END
> <PUBCHEM_COMPOUND_CID>
68138

> <PUBCHEM_CONFORMER_RMSD>
0.4

> <PUBCHEM_CONFORMER_DIVERSEORDER>
1
2

> <PUBCHEM_MMFF94_PARTIAL_CHARGES>
16
1 -0.53
10 0.14
11 0.63
12 0.15
13 0.15
14 0.15
18 0.45
19 0.5
2 -0.65
3 -0.57
4 -0.14
5 -0.15
6 0.09
7 0.08
8 -0.15
9 -0.15

> <PUBCHEM_EFFECTIVE_ROTOR_COUNT>
1

> <PUBCHEM_PHARMACOPHORE_FEATURES>
5
1 1 donor
1 2 acceptor
1 3 acceptor
3 2 3 11 anion
6 4 5 6 7 8 9 rings

> <PUBCHEM_HEAVY_ATOM_COUNT>
11

> <PUBCHEM_ATOM_DEF_STEREO_COUNT>
0

> <PUBCHEM_ATOM_UDEF_STEREO_COUNT>
0

> <PUBCHEM_BOND_DEF_STEREO_COUNT>
0

> <PUBCHEM_BOND_UDEF_STEREO_COUNT>
0

> <PUBCHEM_ISOTOPIC_ATOM_COUNT>
0

> <PUBCHEM_COMPONENT_COUNT>
1

> <PUBCHEM_CACTVS_TAUTO_COUNT>
4

> <PUBCHEM_CONFORMER_ID>
00010A2A00000001

> <PUBCHEM_MMFF94_ENERGY>
29.7101

> <PUBCHEM_FEATURE_SELFOVERLAP>
25.429

> <PUBCHEM_SHAPE_FINGERPRINT>
12897270 3 18411138043222350132
12932764 1 17561077042519872187
14128692 85 18338804390456987830
14325111 11 18410575101848326785
161256 15 18338518521870976340
16945 1 18338517563644908740
17990270 104 18409166618894963691
193761 8 17978509728761080872
20201158 50 18335137626373182715
20645477 70 18411412883097522647
20871998 22 18127134061335983142
21040471 1 18194401327739587364
23235685 24 18336540620595841760
23402655 69 18341035330216124485
23552423 10 18261396615503066702
241688 4 18120376458465571112
2748010 2 18338515240104512070
29004967 10 18408044026081167129
5084963 1 18129104604888806953
528886 8 18411414020688414201
53812653 166 18343578577239982496
63268167 104 18412267216005113745

> <PUBCHEM_SHAPE_MULTIPOLES>
208.77
4.31
1.82
0.59
1.38
0.18
0
0.53
0
-0.63
0
-0.03
0
0

> <PUBCHEM_SHAPE_SELFOVERLAP>
440.119

> <PUBCHEM_SHAPE_VOLUME>
118.4

> <PUBCHEM_COORDINATE_TYPE>
2
5
10

$$$$
