4737557
  -OEChem-09121601183D

 24 23  0     0  0  0  0  0  0999 V2000
   -0.0659   -0.8408   -1.1709 O   0  0  0  0  0  0  0  0  0  0  0  0
    2.4524    1.4799   -0.0760 O   0  0  0  0  0  0  0  0  0  0  0  0
    4.2686    0.1751   -0.4592 O   0  0  0  0  0  0  0  0  0  0  0  0
    0.9676   -0.4488    0.8724 N   0  0  0  0  0  0  0  0  0  0  0  0
   -2.5925   -0.0441   -0.2597 C   0  0  0  0  0  0  0  0  0  0  0  0
   -1.3893   -0.0160    0.6800 C   0  0  0  0  0  0  0  0  0  0  0  0
   -3.8691    0.3918    0.4577 C   0  0  0  0  0  0  0  0  0  0  0  0
   -0.1126   -0.4818    0.0025 C   0  0  0  0  0  0  0  0  0  0  0  0
   -5.0761    0.3283   -0.4647 C   0  0  0  0  0  0  0  0  0  0  0  0
    2.3013   -0.8438    0.4823 C   0  0  0  0  0  0  0  0  0  0  0  0
    3.1157    0.3003   -0.0644 C   0  0  0  0  0  0  0  0  0  0  0  0
   -2.4068    0.6126   -1.1188 H   0  0  0  0  0  0  0  0  0  0  0  0
   -2.7232   -1.0573   -0.6599 H   0  0  0  0  0  0  0  0  0  0  0  0
   -1.2290    1.0029    1.0522 H   0  0  0  0  0  0  0  0  0  0  0  0
   -1.5731   -0.6663    1.5437 H   0  0  0  0  0  0  0  0  0  0  0  0
   -3.7543    1.4157    0.8323 H   0  0  0  0  0  0  0  0  0  0  0  0
   -4.0480   -0.2533    1.3258 H   0  0  0  0  0  0  0  0  0  0  0  0
   -5.2383   -0.6911   -0.8292 H   0  0  0  0  0  0  0  0  0  0  0  0
   -4.9436    0.9859   -1.3297 H   0  0  0  0  0  0  0  0  0  0  0  0
   -5.9777    0.6458    0.0684 H   0  0  0  0  0  0  0  0  0  0  0  0
    0.8304   -0.1167    1.8227 H   0  0  0  0  0  0  0  0  0  0  0  0
    2.2371   -1.6229   -0.2831 H   0  0  0  0  0  0  0  0  0  0  0  0
    2.7987   -1.2312    1.3757 H   0  0  0  0  0  0  0  0  0  0  0  0
    3.0034    2.2076   -0.4354 H   0  0  0  0  0  0  0  0  0  0  0  0
  1  8  2  0  0  0  0
  2 11  1  0  0  0  0
  2 24  1  0  0  0  0
  3 11  2  0  0  0  0
  4  8  1  0  0  0  0
  4 10  1  0  0  0  0
  4 21  1  0  0  0  0
  5  6  1  0  0  0  0
  5  7  1  0  0  0  0
  5 12  1  0  0  0  0
  5 13  1  0  0  0  0
  6  8  1  0  0  0  0
  6 14  1  0  0  0  0
  6 15  1  0  0  0  0
  7  9  1  0  0  0  0
  7 16  1  0  0  0  0
  7 17  1  0  0  0  0
  9 18  1  0  0  0  0
  9 19  1  0  0  0  0
  9 20  1  0  0  0  0
 10 11  1  0  0  0  0
 10 22  1  0  0  0  0
 10 23  1  0  0  0  0
M  END
> <PUBCHEM_COMPOUND_CID>
4737557

> <PUBCHEM_CONFORMER_RMSD>
0.6

> <PUBCHEM_CONFORMER_DIVERSEORDER>
1
42
33
83
115
12
86
3
104
92
107
97
61
53
101
116
58
112
28
105
7
25
99
13
91
22
111
108
47
10
82
89
68
96
37
35
73
45
5
80
15
57
109
90
52
98
74
62
18
93
110
65
21
46
8
113
40
17
44
2
95
77
69
114
31
24
64
59
94
84
60
43
39
9
51
11
88
66
78
56
72
50
70
103
81
54
32
49
48
30
26
27
4
85
79
16
38
36
100
29
19
14
20
87
75
41
34
63
76
102
23
67
6
55
71
106

> <PUBCHEM_MMFF94_PARTIAL_CHARGES>
10
1 -0.57
10 0.36
11 0.66
2 -0.65
21 0.37
24 0.5
3 -0.57
4 -0.73
6 0.06
8 0.57

> <PUBCHEM_EFFECTIVE_ROTOR_COUNT>
6

> <PUBCHEM_PHARMACOPHORE_FEATURES>
6
1 1 acceptor
1 2 acceptor
1 3 acceptor
1 4 donor
1 9 hydrophobe
3 2 3 11 anion

> <PUBCHEM_HEAVY_ATOM_COUNT>
11

> <PUBCHEM_ATOM_DEF_STEREO_COUNT>
0

> <PUBCHEM_ATOM_UDEF_STEREO_COUNT>
0

> <PUBCHEM_BOND_DEF_STEREO_COUNT>
0

> <PUBCHEM_BOND_UDEF_STEREO_COUNT>
0

> <PUBCHEM_ISOTOPIC_ATOM_COUNT>
0

> <PUBCHEM_COMPONENT_COUNT>
1

> <PUBCHEM_CACTVS_TAUTO_COUNT>
2

> <PUBCHEM_CONFORMER_ID>
00484A1500000001

> <PUBCHEM_MMFF94_ENERGY>
6.2484

> <PUBCHEM_FEATURE_SELFOVERLAP>
30.505

> <PUBCHEM_SHAPE_FINGERPRINT>
11062470 55 17095242510331555827
11987891 38 10592040280506259117
12932764 1 17676756630681785675
14123238 8 11743835867651529667
14252887 29 12829487008866717440
14993402 34 18060138751648819577
15477762 27 11887956557828476552
177051 138 11025787687425014432
17834072 33 18335978753332894791
17834074 16 11815892379774956901
17834076 25 17240483602672479573
18342897 14 13479133488882754359
1986462 14 15123512493470789337
20645477 70 18188204287022143307
21119208 17 18060702792455349324
21293036 1 16845573123293468051
22485316 2 8574711287036798161
23402539 116 15769779017938231976
23402655 69 18409727340050469741
42 15 9583519828355443833
449060 50 17240206538226372215
4990 188 14836125455311260149

> <PUBCHEM_SHAPE_MULTIPOLES>
203.79
8.86
0.94
0.87
5.03
0.15
0.09
2.22
0.72
-0.6
-0.03
0.15
-0.1
-0.07

> <PUBCHEM_SHAPE_SELFOVERLAP>
379.595

> <PUBCHEM_SHAPE_VOLUME>
127.2

> <PUBCHEM_COORDINATE_TYPE>
2
5
10

$$$$
