6419427
  -OEChem-09121610223D

 12 11  0     0  0  0  0  0  0999 V2000
    1.6358    0.0661   -1.2055 O   0  0  0  0  0  0  0  0  0  0  0  0
    1.7724    0.3141    1.0746 O   0  0  0  0  0  0  0  0  0  0  0  0
   -2.4332    0.4493   -0.0270 O   0  0  0  0  0  0  0  0  0  0  0  0
   -1.0958    0.8503   -0.0460 N   0  0  0  0  0  0  0  0  0  0  0  0
   -0.3115   -0.1762    0.0298 C   0  0  0  0  0  0  0  0  0  0  0  0
   -0.7277   -1.6154    0.1279 C   0  0  0  0  0  0  0  0  0  0  0  0
    1.1601    0.1118    0.0462 C   0  0  0  0  0  0  0  0  0  0  0  0
   -1.2853   -1.7714    1.0554 H   0  0  0  0  0  0  0  0  0  0  0  0
    0.1481   -2.2699    0.1286 H   0  0  0  0  0  0  0  0  0  0  0  0
   -1.3591   -1.8756   -0.7260 H   0  0  0  0  0  0  0  0  0  0  0  0
    2.6017    0.2332   -1.2424 H   0  0  0  0  0  0  0  0  0  0  0  0
   -2.8941    1.3030   -0.0888 H   0  0  0  0  0  0  0  0  0  0  0  0
  1  7  1  0  0  0  0
  1 11  1  0  0  0  0
  2  7  2  0  0  0  0
  3  4  1  0  0  0  0
  3 12  1  0  0  0  0
  4  5  2  0  0  0  0
  5  6  1  0  0  0  0
  5  7  1  0  0  0  0
  6  8  1  0  0  0  0
  6  9  1  0  0  0  0
  6 10  1  0  0  0  0
M  END
> <PUBCHEM_COMPOUND_CID>
6419427

> <PUBCHEM_CONFORMER_RMSD>
0.4

> <PUBCHEM_CONFORMER_DIVERSEORDER>
1
3
2

> <PUBCHEM_MMFF94_PARTIAL_CHARGES>
9
1 -0.65
11 0.5
12 0.4
2 -0.57
3 -0.34
4 -0.51
5 0.39
6 0.06
7 0.72

> <PUBCHEM_EFFECTIVE_ROTOR_COUNT>
1

> <PUBCHEM_PHARMACOPHORE_FEATURES>
5
1 1 acceptor
1 2 acceptor
1 3 anion
1 4 acceptor
3 1 2 7 anion

> <PUBCHEM_HEAVY_ATOM_COUNT>
7

> <PUBCHEM_ATOM_DEF_STEREO_COUNT>
0

> <PUBCHEM_ATOM_UDEF_STEREO_COUNT>
0

> <PUBCHEM_BOND_DEF_STEREO_COUNT>
1

> <PUBCHEM_BOND_UDEF_STEREO_COUNT>
0

> <PUBCHEM_ISOTOPIC_ATOM_COUNT>
0

> <PUBCHEM_COMPONENT_COUNT>
1

> <PUBCHEM_CACTVS_TAUTO_COUNT>
2

> <PUBCHEM_CONFORMER_ID>
0061F3E300000001

> <PUBCHEM_MMFF94_ENERGY>
13.2901

> <PUBCHEM_FEATURE_SELFOVERLAP>
25.424

> <PUBCHEM_SHAPE_FINGERPRINT>
16714656 1 18263098706863418983
20096714 4 17458641033001729180
21040471 1 18409167684173310643
24536 1 17703519890463201600
29004967 10 16056878039532293931
5943 1 11185843513433770430

> <PUBCHEM_SHAPE_MULTIPOLES>
121.47
2.47
1.13
0.88
0.43
0.52
-0.05
-0.56
0.03
0.53
0.03
-0.54
-0.03
0.05

> <PUBCHEM_SHAPE_SELFOVERLAP>
227.354

> <PUBCHEM_SHAPE_VOLUME>
76.3

> <PUBCHEM_COORDINATE_TYPE>
2
5
10

$$$$
