75810
  -OEChem-09121610513D

 18 18  0     0  0  0  0  0  0999 V2000
    3.5603    0.2379    0.2605 O   0  0  0  0  0  0  0  0  0  0  0  0
    1.9226    0.5199   -1.2884 O   0  0  0  0  0  0  0  0  0  0  0  0
   -2.1297    0.2710    0.0042 N   0  0  0  0  0  0  0  0  0  0  0  0
   -0.6308   -1.3548   -0.2009 N   0  0  0  0  0  0  0  0  0  0  0  0
   -0.0770   -0.2822    0.4520 C   0  0  0  0  0  0  0  0  0  0  0  0
   -0.9875    0.7388    0.5906 C   0  0  0  0  0  0  0  0  0  0  0  0
    1.3225   -0.3203    0.9027 C   0  0  0  0  0  0  0  0  0  0  0  0
   -1.8674   -0.9894   -0.4561 C   0  0  0  0  0  0  0  0  0  0  0  0
   -3.3831    0.9759   -0.1070 C   0  0  0  0  0  0  0  0  0  0  0  0
    2.2702    0.2032   -0.1576 C   0  0  0  0  0  0  0  0  0  0  0  0
    1.6123   -1.3498    1.1398 H   0  0  0  0  0  0  0  0  0  0  0  0
    1.4450    0.2915    1.8034 H   0  0  0  0  0  0  0  0  0  0  0  0
   -0.9238    1.7206    1.0394 H   0  0  0  0  0  0  0  0  0  0  0  0
   -2.6098   -1.5895   -0.9643 H   0  0  0  0  0  0  0  0  0  0  0  0
   -3.9904    0.7295    0.7672 H   0  0  0  0  0  0  0  0  0  0  0  0
   -3.1870    2.0504   -0.1447 H   0  0  0  0  0  0  0  0  0  0  0  0
   -3.8886    0.6619   -1.0238 H   0  0  0  0  0  0  0  0  0  0  0  0
    4.1647    0.5571   -0.4431 H   0  0  0  0  0  0  0  0  0  0  0  0
  1 10  1  0  0  0  0
  1 18  1  0  0  0  0
  2 10  2  0  0  0  0
  3  6  1  0  0  0  0
  3  8  1  0  0  0  0
  3  9  1  0  0  0  0
  4  5  1  0  0  0  0
  4  8  2  0  0  0  0
  5  6  2  0  0  0  0
  5  7  1  0  0  0  0
  6 13  1  0  0  0  0
  7 10  1  0  0  0  0
  7 11  1  0  0  0  0
  7 12  1  0  0  0  0
  8 14  1  0  0  0  0
  9 15  1  0  0  0  0
  9 16  1  0  0  0  0
  9 17  1  0  0  0  0
M  END
> <PUBCHEM_COMPOUND_CID>
75810

> <PUBCHEM_CONFORMER_RMSD>
0.4

> <PUBCHEM_CONFORMER_DIVERSEORDER>
1
10
15
16
5
9
4
7
17
12
8
6
13
3
14
2
11

> <PUBCHEM_MMFF94_PARTIAL_CHARGES>
13
1 -0.65
10 0.66
13 0.15
14 0.15
18 0.5
2 -0.57
3 0.05
4 -0.57
5 0.05
6 -0.3
7 0.24
8 0.04
9 0.26

> <PUBCHEM_EFFECTIVE_ROTOR_COUNT>
2

> <PUBCHEM_PHARMACOPHORE_FEATURES>
5
1 1 acceptor
1 2 acceptor
3 1 2 10 anion
3 3 4 8 cation
5 3 4 5 6 8 rings

> <PUBCHEM_HEAVY_ATOM_COUNT>
10

> <PUBCHEM_ATOM_DEF_STEREO_COUNT>
0

> <PUBCHEM_ATOM_UDEF_STEREO_COUNT>
0

> <PUBCHEM_BOND_DEF_STEREO_COUNT>
0

> <PUBCHEM_BOND_UDEF_STEREO_COUNT>
0

> <PUBCHEM_ISOTOPIC_ATOM_COUNT>
0

> <PUBCHEM_COMPONENT_COUNT>
1

> <PUBCHEM_CACTVS_TAUTO_COUNT>
1

> <PUBCHEM_CONFORMER_ID>
0001282200000001

> <PUBCHEM_MMFF94_ENERGY>
6.6222

> <PUBCHEM_FEATURE_SELFOVERLAP>
25.43

> <PUBCHEM_SHAPE_FINGERPRINT>
11062470 55 16773795896246823880
12716758 59 18202003230795909586
12897270 3 17561368391594806284
14325111 11 18411980239227972779
14390081 3 18410571794786909977
15775835 57 18260548922229565988
20201158 50 16702305646003408430
20653085 51 18187942689048011580
21040471 1 18271797983002008803
21293036 1 18060695092011582197
23235685 24 18343578517104911937
23402539 116 17845923048687848140
29004967 10 15339124562887178162
369184 2 18341612650349019178
5084963 1 17023179504360632194

> <PUBCHEM_SHAPE_MULTIPOLES>
184.09
4.85
1.07
0.9
0.83
0.21
0.09
-1.41
0.53
-0.62
0.05
0.35
-0.05
-0.2

> <PUBCHEM_SHAPE_SELFOVERLAP>
376.858

> <PUBCHEM_SHAPE_VOLUME>
109.7

> <PUBCHEM_COORDINATE_TYPE>
2
5
10

$$$$
