75725
  -OEChem-09121606553D

 19 18  0     0  0  0  0  0  0999 V2000
    1.6046   -0.3217    1.1170 O   0  0  0  0  0  0  0  0  0  0  0  0
    1.5364   -0.5697   -1.1321 O   0  0  0  0  0  0  0  0  0  0  0  0
   -1.2530   -0.3252    0.7735 N   0  0  0  0  0  0  0  0  0  0  0  0
   -0.3518    0.5061   -0.0297 C   0  0  0  0  0  0  0  0  0  0  0  0
   -0.9416    0.6655   -1.4351 C   0  0  0  0  0  0  0  0  0  0  0  0
   -0.1799    1.8732    0.6352 C   0  0  0  0  0  0  0  0  0  0  0  0
    1.0032   -0.1927   -0.0951 C   0  0  0  0  0  0  0  0  0  0  0  0
   -1.4180   -1.6354    0.1664 C   0  0  0  0  0  0  0  0  0  0  0  0
   -0.8943   -0.2476   -2.0385 H   0  0  0  0  0  0  0  0  0  0  0  0
   -1.9841    1.0034   -1.3994 H   0  0  0  0  0  0  0  0  0  0  0  0
   -0.3801    1.4224   -1.9976 H   0  0  0  0  0  0  0  0  0  0  0  0
    0.1817    1.7879    1.6669 H   0  0  0  0  0  0  0  0  0  0  0  0
    0.5478    2.4861    0.0904 H   0  0  0  0  0  0  0  0  0  0  0  0
   -1.1277    2.4232    0.6633 H   0  0  0  0  0  0  0  0  0  0  0  0
   -0.8757   -0.4304    1.7152 H   0  0  0  0  0  0  0  0  0  0  0  0
   -0.4837   -2.1822    0.0086 H   0  0  0  0  0  0  0  0  0  0  0  0
   -1.9914   -1.6049   -0.7645 H   0  0  0  0  0  0  0  0  0  0  0  0
   -2.0145   -2.2500    0.8510 H   0  0  0  0  0  0  0  0  0  0  0  0
    2.4821   -0.7542    1.0450 H   0  0  0  0  0  0  0  0  0  0  0  0
  1  7  1  0  0  0  0
  1 19  1  0  0  0  0
  2  7  2  0  0  0  0
  3  4  1  0  0  0  0
  3  8  1  0  0  0  0
  3 15  1  0  0  0  0
  4  5  1  0  0  0  0
  4  6  1  0  0  0  0
  4  7  1  0  0  0  0
  5  9  1  0  0  0  0
  5 10  1  0  0  0  0
  5 11  1  0  0  0  0
  6 12  1  0  0  0  0
  6 13  1  0  0  0  0
  6 14  1  0  0  0  0
  8 16  1  0  0  0  0
  8 17  1  0  0  0  0
  8 18  1  0  0  0  0
M  END
> <PUBCHEM_COMPOUND_CID>
75725

> <PUBCHEM_CONFORMER_RMSD>
0.4

> <PUBCHEM_CONFORMER_DIVERSEORDER>
1
8
6
2
5
4
3
7
9

> <PUBCHEM_MMFF94_PARTIAL_CHARGES>
8
1 -0.65
15 0.36
19 0.5
2 -0.57
3 -0.9
4 0.33
7 0.66
8 0.27

> <PUBCHEM_EFFECTIVE_ROTOR_COUNT>
2

> <PUBCHEM_PHARMACOPHORE_FEATURES>
6
1 1 acceptor
1 2 acceptor
1 3 cation
1 3 donor
3 1 2 7 anion
3 4 5 6 hydrophobe

> <PUBCHEM_HEAVY_ATOM_COUNT>
8

> <PUBCHEM_ATOM_DEF_STEREO_COUNT>
0

> <PUBCHEM_ATOM_UDEF_STEREO_COUNT>
0

> <PUBCHEM_BOND_DEF_STEREO_COUNT>
0

> <PUBCHEM_BOND_UDEF_STEREO_COUNT>
0

> <PUBCHEM_ISOTOPIC_ATOM_COUNT>
0

> <PUBCHEM_COMPONENT_COUNT>
1

> <PUBCHEM_CACTVS_TAUTO_COUNT>
1

> <PUBCHEM_CONFORMER_ID>
000127CD00000001

> <PUBCHEM_MMFF94_ENERGY>
14.9847

> <PUBCHEM_FEATURE_SELFOVERLAP>
30.506

> <PUBCHEM_SHAPE_FINGERPRINT>
12423570 1 11371196688215638425
137420 1 12044668609847091601
21040471 1 17833842564025098464
23552449 11 17979068611317267051
24536 1 18268710515596216356
29004967 10 17701792527678647701
5943 1 16414061096396576173

> <PUBCHEM_SHAPE_MULTIPOLES>
147.92
1.81
1.59
1.24
0.09
0.47
0.31
-0.86
-0.13
0.16
-0.19
-0.07
0.11
0.3

> <PUBCHEM_SHAPE_SELFOVERLAP>
277.515

> <PUBCHEM_SHAPE_VOLUME>
93.4

> <PUBCHEM_COORDINATE_TYPE>
2
5
10

$$$$
