440105
  -OEChem-09121601163D

 54 57  0     1  0  0  0  0  0999 V2000
    0.3513   -2.7169   -0.4145 O   0  0  0  0  0  0  0  0  0  0  0  0
   -5.5369   -0.0364    0.7317 O   0  0  0  0  0  0  0  0  0  0  0  0
    6.0966   -0.0769   -0.9565 O   0  0  0  0  0  0  0  0  0  0  0  0
   -1.4552    1.0285   -0.4222 C   0  0  2  0  0  0  0  0  0  0  0  0
   -2.3348   -0.1377    0.0691 C   0  0  2  0  0  0  0  0  0  0  0  0
   -0.0650    1.0344    0.2198 C   0  0  1  0  0  0  0  0  0  0  0  0
    0.6797   -0.2993   -0.1309 C   0  0  1  0  0  0  0  0  0  0  0  0
    2.1473   -0.3383    0.4856 C   0  0  2  0  0  0  0  0  0  0  0  0
   -1.6515   -1.4362   -0.3617 C   0  0  0  0  0  0  0  0  0  0  0  0
   -3.6380    0.1893   -0.6932 C   0  0  2  0  0  0  0  0  0  0  0  0
   -0.2108   -1.5480    0.1794 C   0  0  1  0  0  0  0  0  0  0  0  0
   -2.3565    2.2472   -0.2446 C   0  0  0  0  0  0  0  0  0  0  0  0
    0.7533    2.2427   -0.2496 C   0  0  0  0  0  0  0  0  0  0  0  0
   -3.7598    1.7234   -0.5968 C   0  0  0  0  0  0  0  0  0  0  0  0
    2.8791    0.9742    0.1546 C   0  0  0  0  0  0  0  0  0  0  0  0
   -2.5718   -0.1513    1.6011 C   0  0  0  0  0  0  0  0  0  0  0  0
    2.1253    2.2572    0.4052 C   0  0  0  0  0  0  0  0  0  0  0  0
    2.9364   -1.5389   -0.1157 C   0  0  0  0  0  0  0  0  0  0  0  0
    2.1120   -0.4957    2.0232 C   0  0  0  0  0  0  0  0  0  0  0  0
   -4.8532   -0.5136   -0.1726 C   0  0  0  0  0  0  0  0  0  0  0  0
    4.4424   -1.4580    0.0834 C   0  0  0  0  0  0  0  0  0  0  0  0
    4.1352    1.0455   -0.3175 C   0  0  0  0  0  0  0  0  0  0  0  0
    4.9733   -0.1638   -0.4655 C   0  0  0  0  0  0  0  0  0  0  0  0
   -5.1985   -1.8314   -0.8118 C   0  0  0  0  0  0  0  0  0  0  0  0
   -1.3014    0.9178   -1.5090 H   0  0  0  0  0  0  0  0  0  0  0  0
   -0.1761    1.1178    1.3062 H   0  0  0  0  0  0  0  0  0  0  0  0
    0.8197   -0.2989   -1.2244 H   0  0  0  0  0  0  0  0  0  0  0  0
   -1.6260   -1.5121   -1.4576 H   0  0  0  0  0  0  0  0  0  0  0  0
   -2.2253   -2.3092   -0.0280 H   0  0  0  0  0  0  0  0  0  0  0  0
   -3.5314   -0.0647   -1.7570 H   0  0  0  0  0  0  0  0  0  0  0  0
   -0.2431   -1.7191    1.2594 H   0  0  0  0  0  0  0  0  0  0  0  0
   -2.0667    3.0739   -0.9011 H   0  0  0  0  0  0  0  0  0  0  0  0
   -2.3321    2.6177    0.7862 H   0  0  0  0  0  0  0  0  0  0  0  0
    0.2362    3.1747    0.0063 H   0  0  0  0  0  0  0  0  0  0  0  0
    0.8605    2.2273   -1.3420 H   0  0  0  0  0  0  0  0  0  0  0  0
   -4.4825    2.0698    0.1491 H   0  0  0  0  0  0  0  0  0  0  0  0
   -4.0858    2.1297   -1.5618 H   0  0  0  0  0  0  0  0  0  0  0  0
   -1.6418   -0.2108    2.1726 H   0  0  0  0  0  0  0  0  0  0  0  0
   -3.1017    0.7402    1.9511 H   0  0  0  0  0  0  0  0  0  0  0  0
   -3.1695   -1.0225    1.8936 H   0  0  0  0  0  0  0  0  0  0  0  0
    2.0173    2.4029    1.4871 H   0  0  0  0  0  0  0  0  0  0  0  0
    2.6808    3.1274    0.0341 H   0  0  0  0  0  0  0  0  0  0  0  0
    2.7402   -1.6004   -1.1950 H   0  0  0  0  0  0  0  0  0  0  0  0
    2.6003   -2.4835    0.3257 H   0  0  0  0  0  0  0  0  0  0  0  0
    3.1118   -0.3929    2.4610 H   0  0  0  0  0  0  0  0  0  0  0  0
    1.4784    0.2548    2.5053 H   0  0  0  0  0  0  0  0  0  0  0  0
    1.7349   -1.4807    2.3179 H   0  0  0  0  0  0  0  0  0  0  0  0
    4.9202   -2.2858   -0.4525 H   0  0  0  0  0  0  0  0  0  0  0  0
    4.7186   -1.5326    1.1399 H   0  0  0  0  0  0  0  0  0  0  0  0
   -0.1924   -3.4763   -0.1443 H   0  0  0  0  0  0  0  0  0  0  0  0
    4.6066    1.9938   -0.5537 H   0  0  0  0  0  0  0  0  0  0  0  0
   -5.2945   -1.7054   -1.8931 H   0  0  0  0  0  0  0  0  0  0  0  0
   -4.4328   -2.5742   -0.5839 H   0  0  0  0  0  0  0  0  0  0  0  0
   -6.1565   -2.1854   -0.4199 H   0  0  0  0  0  0  0  0  0  0  0  0
  1 11  1  0  0  0  0
  1 50  1  0  0  0  0
  2 20  2  0  0  0  0
  3 23  2  0  0  0  0
  4  5  1  0  0  0  0
  4  6  1  0  0  0  0
  4 12  1  0  0  0  0
  4 25  1  0  0  0  0
  5  9  1  0  0  0  0
  5 10  1  0  0  0  0
  5 16  1  0  0  0  0
  6  7  1  0  0  0  0
  6 13  1  0  0  0  0
  6 26  1  0  0  0  0
  7  8  1  0  0  0  0
  7 11  1  0  0  0  0
  7 27  1  0  0  0  0
  8 15  1  0  0  0  0
  8 18  1  0  0  0  0
  8 19  1  0  0  0  0
  9 11  1  0  0  0  0
  9 28  1  0  0  0  0
  9 29  1  0  0  0  0
 10 14  1  0  0  0  0
 10 20  1  0  0  0  0
 10 30  1  0  0  0  0
 11 31  1  0  0  0  0
 12 14  1  0  0  0  0
 12 32  1  0  0  0  0
 12 33  1  0  0  0  0
 13 17  1  0  0  0  0
 13 34  1  0  0  0  0
 13 35  1  0  0  0  0
 14 36  1  0  0  0  0
 14 37  1  0  0  0  0
 15 17  1  0  0  0  0
 15 22  2  0  0  0  0
 16 38  1  0  0  0  0
 16 39  1  0  0  0  0
 16 40  1  0  0  0  0
 17 41  1  0  0  0  0
 17 42  1  0  0  0  0
 18 21  1  0  0  0  0
 18 43  1  0  0  0  0
 18 44  1  0  0  0  0
 19 45  1  0  0  0  0
 19 46  1  0  0  0  0
 19 47  1  0  0  0  0
 20 24  1  0  0  0  0
 21 23  1  0  0  0  0
 21 48  1  0  0  0  0
 21 49  1  0  0  0  0
 22 23  1  0  0  0  0
 22 51  1  0  0  0  0
 24 52  1  0  0  0  0
 24 53  1  0  0  0  0
 24 54  1  0  0  0  0
M  END
> <PUBCHEM_COMPOUND_CID>
440105

> <PUBCHEM_CONFORMER_RMSD>
0.6

> <PUBCHEM_CONFORMER_DIVERSEORDER>
1
2
4
3

> <PUBCHEM_MMFF94_PARTIAL_CHARGES>
15
1 -0.68
10 0.06
11 0.28
15 -0.28
17 0.14
2 -0.57
20 0.45
21 0.06
22 -0.14
23 0.49
24 0.06
3 -0.57
50 0.4
51 0.15
8 0.14

> <PUBCHEM_EFFECTIVE_ROTOR_COUNT>
2.8

> <PUBCHEM_PHARMACOPHORE_FEATURES>
8
1 1 acceptor
1 1 donor
1 2 acceptor
1 3 acceptor
5 4 5 10 12 14 rings
6 4 5 6 7 9 11 rings
6 6 7 8 13 15 17 rings
6 8 15 18 21 22 23 rings

> <PUBCHEM_HEAVY_ATOM_COUNT>
24

> <PUBCHEM_ATOM_DEF_STEREO_COUNT>
6

> <PUBCHEM_ATOM_UDEF_STEREO_COUNT>
1

> <PUBCHEM_BOND_DEF_STEREO_COUNT>
0

> <PUBCHEM_BOND_UDEF_STEREO_COUNT>
0

> <PUBCHEM_ISOTOPIC_ATOM_COUNT>
0

> <PUBCHEM_COMPONENT_COUNT>
1

> <PUBCHEM_CACTVS_TAUTO_COUNT>
15

> <PUBCHEM_CONFORMER_ID>
0006B72900000001

> <PUBCHEM_MMFF94_ENERGY>
77.5364

> <PUBCHEM_FEATURE_SELFOVERLAP>
40.692

> <PUBCHEM_SHAPE_FINGERPRINT>
10366900 7 17821727247383417249
10967382 1 18410570721008156100
11578080 2 16843027895952291154
11963148 33 18336258042093306323
12011746 2 18334857225117008789
12166972 35 18059858401937963649
12403259 226 18411691093587936101
12403259 415 18342448240621535889
12553582 1 18339065056021750253
12592029 89 18411136913704318043
12788726 201 18263076635101033337
13140716 1 18338799038954150043
13224815 77 18187081728588748513
13583140 156 16732986444060639457
13862211 1 18410568492009956182
14787075 74 18333733519885901643
14790565 3 18338806623555638748
15099037 51 18412266142563950486
15196674 1 18409727326912399252
1601671 61 18410009893005962332
16752209 62 18410565159141688848
16945 1 18339630213588218825
17349148 13 17918275376466697303
18186145 218 17346022433529661227
18681886 176 18411412951442283816
19591789 44 18410570665147142655
200 152 18202562873698353025
20028762 73 18131062783812295239
20645477 70 18335977661968258820
21033648 29 18335972129950414753
21267235 1 18410863165325903662
21279426 13 18265896843886929020
221357 26 18411134736113570885
22182313 1 18190716752558891956
22393880 68 18335128770198214749
23402539 116 18342171154884682341
23522609 53 18195841576351212937
23559900 14 18340197574668654113
2871803 45 18113893879325704209
296302 2 13334737929325695872
3004659 81 18188493468019190534
335352 9 18411982476752895127
34934 24 18337947995969784664
350125 39 18411140216914008989
3886686 26 10586761383742851012
4214541 1 18410572855786432285
4280585 95 17405148426939101750
465052 167 18341335582235854535
5104073 3 18409726223127092353
59755656 215 18409728435557131503
7495541 125 17704067434442863122
9709674 26 18334293218897122641

> <PUBCHEM_SHAPE_MULTIPOLES>
476.3
11.07
2.36
1.06
0.01
0.26
0.46
-2.12
-2.15
-0.26
-0.32
0.02
-0.13
-0.1

> <PUBCHEM_SHAPE_SELFOVERLAP>
1020.636

> <PUBCHEM_SHAPE_VOLUME>
262.3

> <PUBCHEM_COORDINATE_TYPE>
2
5
10

$$$$
