439283
  -OEChem-09111609463D

 27 26  0     1  0  0  0  0  0999 V2000
   -2.3679   -1.8599    0.2451 O   0  0  0  0  0  0  0  0  0  0  0  0
    2.3680   -1.8345   -0.2649 O   0  0  0  0  0  0  0  0  0  0  0  0
   -3.6604   -0.2957    1.2570 O   0  0  0  0  0  0  0  0  0  0  0  0
    3.6938   -0.2711   -1.2496 O   0  0  0  0  0  0  0  0  0  0  0  0
   -3.5882    1.1848   -1.0631 N   0  0  0  0  0  0  0  0  0  0  0  0
    3.5636    1.1775    1.1105 N   0  0  0  0  0  0  0  0  0  0  0  0
   -0.0162    0.2820   -0.0236 C   0  0  0  0  0  0  0  0  0  0  0  0
   -1.2378    1.1404   -0.3733 C   0  0  0  0  0  0  0  0  0  0  0  0
    1.2203    1.1056    0.3637 C   0  0  0  0  0  0  0  0  0  0  0  0
   -2.4565    0.2997   -0.7763 C   0  0  1  0  0  0  0  0  0  0  0  0
    2.4497    0.2860    0.7754 C   0  0  1  0  0  0  0  0  0  0  0  0
   -2.8975   -0.6136    0.3532 C   0  0  0  0  0  0  0  0  0  0  0  0
    2.9292   -0.6012   -0.3539 C   0  0  0  0  0  0  0  0  0  0  0  0
   -0.2524   -0.3822    0.8151 H   0  0  0  0  0  0  0  0  0  0  0  0
    0.2186   -0.3538   -0.8849 H   0  0  0  0  0  0  0  0  0  0  0  0
   -1.4844    1.7659    0.4951 H   0  0  0  0  0  0  0  0  0  0  0  0
   -0.9740    1.8217   -1.1923 H   0  0  0  0  0  0  0  0  0  0  0  0
    1.4771    1.7505   -0.4880 H   0  0  0  0  0  0  0  0  0  0  0  0
    0.9483    1.7760    1.1897 H   0  0  0  0  0  0  0  0  0  0  0  0
   -2.2431   -0.2992   -1.6687 H   0  0  0  0  0  0  0  0  0  0  0  0
    2.2277   -0.3285    1.6547 H   0  0  0  0  0  0  0  0  0  0  0  0
   -4.3722    0.6342   -1.4121 H   0  0  0  0  0  0  0  0  0  0  0  0
   -3.3372    1.8268   -1.8141 H   0  0  0  0  0  0  0  0  0  0  0  0
    3.8120    1.7480    0.3033 H   0  0  0  0  0  0  0  0  0  0  0  0
    4.3892    0.6287    1.3471 H   0  0  0  0  0  0  0  0  0  0  0  0
   -2.6646   -2.4474    0.9725 H   0  0  0  0  0  0  0  0  0  0  0  0
    2.6550   -2.4206   -0.9973 H   0  0  0  0  0  0  0  0  0  0  0  0
  1 12  1  0  0  0  0
  1 26  1  0  0  0  0
  2 13  1  0  0  0  0
  2 27  1  0  0  0  0
  3 12  2  0  0  0  0
  4 13  2  0  0  0  0
  5 10  1  0  0  0  0
  5 22  1  0  0  0  0
  5 23  1  0  0  0  0
  6 11  1  0  0  0  0
  6 24  1  0  0  0  0
  6 25  1  0  0  0  0
  7  8  1  0  0  0  0
  7  9  1  0  0  0  0
  7 14  1  0  0  0  0
  7 15  1  0  0  0  0
  8 10  1  0  0  0  0
  8 16  1  0  0  0  0
  8 17  1  0  0  0  0
  9 11  1  0  0  0  0
  9 18  1  0  0  0  0
  9 19  1  0  0  0  0
 10 12  1  0  0  0  0
 10 20  1  0  0  0  0
 11 13  1  0  0  0  0
 11 21  1  0  0  0  0
M  END
> <PUBCHEM_COMPOUND_CID>
439283

> <PUBCHEM_CONFORMER_RMSD>
0.6

> <PUBCHEM_CONFORMER_DIVERSEORDER>
4
54
20
58
74
23
70
32
28
36
71
5
34
52
14
39
18
10
57
50
12
31
27
26
73
67
7
2
62
51
42
65
48
16
3
6
53
21
47
44
61
40
66
60
69
15
37
68
49
24
45
11
41
63
22
38
56
64
46
29
33
72
30
25
8
1
55
19
43
13
35
9
59
17

> <PUBCHEM_MMFF94_PARTIAL_CHARGES>
16
1 -0.65
10 0.33
11 0.33
12 0.66
13 0.66
2 -0.65
22 0.36
23 0.36
24 0.36
25 0.36
26 0.5
27 0.5
3 -0.57
4 -0.57
5 -0.99
6 -0.99

> <PUBCHEM_EFFECTIVE_ROTOR_COUNT>
6

> <PUBCHEM_PHARMACOPHORE_FEATURES>
10
1 1 acceptor
1 2 acceptor
1 3 acceptor
1 4 acceptor
1 5 cation
1 5 donor
1 6 cation
1 6 donor
3 1 3 12 anion
3 2 4 13 anion

> <PUBCHEM_HEAVY_ATOM_COUNT>
13

> <PUBCHEM_ATOM_DEF_STEREO_COUNT>
2

> <PUBCHEM_ATOM_UDEF_STEREO_COUNT>
0

> <PUBCHEM_BOND_DEF_STEREO_COUNT>
0

> <PUBCHEM_BOND_UDEF_STEREO_COUNT>
0

> <PUBCHEM_ISOTOPIC_ATOM_COUNT>
0

> <PUBCHEM_COMPONENT_COUNT>
1

> <PUBCHEM_CACTVS_TAUTO_COUNT>
1

> <PUBCHEM_CONFORMER_ID>
0006B3F300000004

> <PUBCHEM_MMFF94_ENERGY>
8.504

> <PUBCHEM_FEATURE_SELFOVERLAP>
50.863

> <PUBCHEM_SHAPE_FINGERPRINT>
10799339 124 15625956282675112334
12162725 195 9223231827658239718
12932764 1 18411134736092302830
13296908 3 18410570690922253508
15219456 202 18411976966294094601
15375358 24 18338780278204756305
18186145 218 18273498970197102146
19422 9 16081083770917080449
20201158 50 18341609291695331510
20279233 1 18410845564528851520
20281407 28 18409731759365978465
20523700 14 18261392221846540238
20645477 56 18187636990820177309
20645477 70 17846206718550888828
20871999 31 17894353284938403967
22169311 21 18410847759251813078
23048698 100 16559026103749527969
23402539 116 16950000318879827140
23557571 272 17823119160785982436
3248919 1 18410002239110678652
528716 315 17240488013445688973
53428517 58 12107796241159128865
581208 293 18059561516977037132

> <PUBCHEM_SHAPE_MULTIPOLES>
234.09
7.5
1.5
1.08
0.08
0.46
-0.01
0.4
0
-0.04
0
0.03
-0.11
1.22

> <PUBCHEM_SHAPE_SELFOVERLAP>
446.529

> <PUBCHEM_SHAPE_VOLUME>
142.7

> <PUBCHEM_COORDINATE_TYPE>
2
5
10

$$$$
