6427003
  -OEChem-09131616163D

 37 36  0     1  0  0  0  0  0999 V2000
   -0.4389    3.4434   -0.8408 O   0  0  0  0  0  0  0  0  0  0  0  0
    1.4600    0.0992   -1.7185 O   0  0  0  0  0  0  0  0  0  0  0  0
    0.3966    2.6396    1.1099 O   0  0  0  0  0  0  0  0  0  0  0  0
    5.4611   -0.9419    0.6019 O   0  0  0  0  0  0  0  0  0  0  0  0
    3.7340    0.5055    0.8896 O   0  0  0  0  0  0  0  0  0  0  0  0
    0.0332    0.0982    0.1103 N   0  0  0  0  0  0  0  0  0  0  0  0
    1.2127   -2.7148   -0.3281 N   0  0  0  0  0  0  0  0  0  0  0  0
   -6.4987   -1.6628    0.5539 N   0  0  0  0  0  0  0  0  0  0  0  0
   -2.2535    1.0254    0.2058 C   0  0  0  0  0  0  0  0  0  0  0  0
   -0.8387    1.1418   -0.3637 C   0  0  1  0  0  0  0  0  0  0  0  0
   -3.0013   -0.2527   -0.1944 C   0  0  0  0  0  0  0  0  0  0  0  0
   -4.4333   -0.3110    0.3482 C   0  0  0  0  0  0  0  0  0  0  0  0
    1.8792   -1.4764    0.0770 C   0  0  2  0  0  0  0  0  0  0  0  0
    1.1296   -0.3437   -0.6202 C   0  0  0  0  0  0  0  0  0  0  0  0
   -5.1532   -1.6145   -0.0053 C   0  0  0  0  0  0  0  0  0  0  0  0
   -0.2099    2.4542    0.0627 C   0  0  0  0  0  0  0  0  0  0  0  0
    3.3491   -1.5393   -0.3393 C   0  0  0  0  0  0  0  0  0  0  0  0
    4.1720   -0.5504    0.4511 C   0  0  0  0  0  0  0  0  0  0  0  0
   -2.8404    1.8941   -0.1203 H   0  0  0  0  0  0  0  0  0  0  0  0
   -2.2146    1.0818    1.3021 H   0  0  0  0  0  0  0  0  0  0  0  0
   -0.8612    1.1032   -1.4593 H   0  0  0  0  0  0  0  0  0  0  0  0
   -3.0286   -0.3261   -1.2885 H   0  0  0  0  0  0  0  0  0  0  0  0
   -2.4473   -1.1268    0.1687 H   0  0  0  0  0  0  0  0  0  0  0  0
   -4.4058   -0.1972    1.4396 H   0  0  0  0  0  0  0  0  0  0  0  0
   -5.0018    0.5412   -0.0452 H   0  0  0  0  0  0  0  0  0  0  0  0
   -0.1364   -0.2887    1.0344 H   0  0  0  0  0  0  0  0  0  0  0  0
    1.7942   -1.3646    1.1646 H   0  0  0  0  0  0  0  0  0  0  0  0
   -5.2115   -1.7217   -1.0942 H   0  0  0  0  0  0  0  0  0  0  0  0
   -4.5826   -2.4674    0.3783 H   0  0  0  0  0  0  0  0  0  0  0  0
    3.7512   -2.5358   -0.1142 H   0  0  0  0  0  0  0  0  0  0  0  0
    3.5021   -1.3460   -1.4063 H   0  0  0  0  0  0  0  0  0  0  0  0
    1.6652   -3.5107    0.1203 H   0  0  0  0  0  0  0  0  0  0  0  0
    0.2510   -2.7111    0.0108 H   0  0  0  0  0  0  0  0  0  0  0  0
   -7.0501   -0.8883    0.1867 H   0  0  0  0  0  0  0  0  0  0  0  0
   -6.9628   -2.5161    0.2459 H   0  0  0  0  0  0  0  0  0  0  0  0
   -0.0513    4.2975   -0.5533 H   0  0  0  0  0  0  0  0  0  0  0  0
    5.9870   -0.2848    1.1060 H   0  0  0  0  0  0  0  0  0  0  0  0
  1 16  1  0  0  0  0
  1 36  1  0  0  0  0
  2 14  2  0  0  0  0
  3 16  2  0  0  0  0
  4 18  1  0  0  0  0
  4 37  1  0  0  0  0
  5 18  2  0  0  0  0
  6 10  1  0  0  0  0
  6 14  1  0  0  0  0
  6 26  1  0  0  0  0
  7 13  1  0  0  0  0
  7 32  1  0  0  0  0
  7 33  1  0  0  0  0
  8 15  1  0  0  0  0
  8 34  1  0  0  0  0
  8 35  1  0  0  0  0
  9 10  1  0  0  0  0
  9 11  1  0  0  0  0
  9 19  1  0  0  0  0
  9 20  1  0  0  0  0
 10 16  1  0  0  0  0
 10 21  1  0  0  0  0
 11 12  1  0  0  0  0
 11 22  1  0  0  0  0
 11 23  1  0  0  0  0
 12 15  1  0  0  0  0
 12 24  1  0  0  0  0
 12 25  1  0  0  0  0
 13 14  1  0  0  0  0
 13 17  1  0  0  0  0
 13 27  1  0  0  0  0
 15 28  1  0  0  0  0
 15 29  1  0  0  0  0
 17 18  1  0  0  0  0
 17 30  1  0  0  0  0
 17 31  1  0  0  0  0
M  END
> <PUBCHEM_COMPOUND_CID>
6427003

> <PUBCHEM_CONFORMER_RMSD>
0.8

> <PUBCHEM_CONFORMER_DIVERSEORDER>
1
80
162
114
137
81
112
58
35
61
8
4
157
159
119
126
85
98
56
72
7
43
170
148
124
106
34
171
87
22
166
9
79
13
20
150
53
78
41
164
136
23
14
146
11
122
96
115
145
107
50
144
84
65
16
86
127
154
90
69
132
167
74
92
77
26
151
120
116
54
24
91
161
131
33
37
55
104
83
101
30
21
15
18
88
125
121
103
128
63
27
71
70
94
152
12
158
169
40
67
135
52
160
2
82
147
39
100
3
19
44
113
168
123
133
49
108
38
75
149
76
42
129
105
32
140
60
139
46
28
155
48
45
130
36
99
110
117
111
153
102
118
143
6
134
10
165
17
47
29
73
51
93
138
163
95
141
109
62
25
31
97
66
156
64
57
142
59
5
68
89

> <PUBCHEM_MMFF94_PARTIAL_CHARGES>
22
1 -0.65
10 0.36
13 0.33
14 0.57
15 0.27
16 0.66
17 0.06
18 0.66
2 -0.57
26 0.37
3 -0.57
32 0.36
33 0.36
34 0.36
35 0.36
36 0.5
37 0.5
4 -0.65
5 -0.57
6 -0.73
7 -0.99
8 -0.99

> <PUBCHEM_EFFECTIVE_ROTOR_COUNT>
10

> <PUBCHEM_PHARMACOPHORE_FEATURES>
12
1 1 acceptor
1 2 acceptor
1 3 acceptor
1 4 acceptor
1 5 acceptor
1 6 donor
1 7 cation
1 7 donor
1 8 cation
1 8 donor
3 1 3 16 anion
3 4 5 18 anion

> <PUBCHEM_HEAVY_ATOM_COUNT>
18

> <PUBCHEM_ATOM_DEF_STEREO_COUNT>
2

> <PUBCHEM_ATOM_UDEF_STEREO_COUNT>
0

> <PUBCHEM_BOND_DEF_STEREO_COUNT>
0

> <PUBCHEM_BOND_UDEF_STEREO_COUNT>
0

> <PUBCHEM_ISOTOPIC_ATOM_COUNT>
0

> <PUBCHEM_COMPONENT_COUNT>
1

> <PUBCHEM_CACTVS_TAUTO_COUNT>
2

> <PUBCHEM_CONFORMER_ID>
0062117B00000001

> <PUBCHEM_MMFF94_ENERGY>
14.5472

> <PUBCHEM_FEATURE_SELFOVERLAP>
61.014

> <PUBCHEM_SHAPE_FINGERPRINT>
11806522 49 18408604768706286731
12553582 1 18265639661567211759
12623949 98 17703523085972417222
12841375 25 18409166619511992701
13083527 12 18334016098896372908
14252887 29 17846791684522688295
14787075 74 18335421292031023746
14863182 85 18339936955874162158
15927050 60 17551229996939474636
17492 89 18192989310303096050
17834072 8 11097854068987336946
20645477 70 18190738833913668587
20681677 274 18122056499464202282
2255824 54 18194694876412718821
23402539 116 18261387806546228647
23557571 272 18199473164435748236
23559900 14 18050841122837901638
293599 30 10231753392263230162
3421961 26 18339081600968841609
474229 33 18411133624155150822
5104073 3 18128530462551598626
57672749 33 18200870789775539113
81228 2 18048620130540086465

> <PUBCHEM_SHAPE_MULTIPOLES>
326.14
10.7
2.97
0.93
8.93
2.07
0.16
-9.03
-2.92
0.53
0.12
-0.4
0.22
0.42

> <PUBCHEM_SHAPE_SELFOVERLAP>
628.441

> <PUBCHEM_SHAPE_VOLUME>
196.8

> <PUBCHEM_COORDINATE_TYPE>
2
5
10

$$$$
