101964
  -OEChem-09121601363D

 51 54  0     1  0  0  0  0  0999 V2000
   -4.9108   -1.7515    0.1384 O   0  0  0  0  0  0  0  0  0  0  0  0
    6.0186   -0.1964   -1.2228 O   0  0  0  0  0  0  0  0  0  0  0  0
   -0.0415    0.9347    0.4048 C   0  0  2  0  0  0  0  0  0  0  0  0
    0.6755   -0.3647   -0.0873 C   0  0  1  0  0  0  0  0  0  0  0  0
   -1.4583    0.9418   -0.1704 C   0  0  1  0  0  0  0  0  0  0  0  0
   -2.2971   -0.2605    0.3253 C   0  0  2  0  0  0  0  0  0  0  0  0
    2.1636   -0.4684    0.4241 C   0  0  2  0  0  0  0  0  0  0  0  0
   -0.1743   -1.6441    0.1653 C   0  0  0  0  0  0  0  0  0  0  0  0
   -1.6508   -1.5191   -0.2655 C   0  0  0  0  0  0  0  0  0  0  0  0
    0.7555    2.1697   -0.0294 C   0  0  0  0  0  0  0  0  0  0  0  0
   -2.3705    2.1556    0.0113 C   0  0  0  0  0  0  0  0  0  0  0  0
    2.8950    0.8497    0.1361 C   0  0  0  0  0  0  0  0  0  0  0  0
    2.1769    2.1236    0.5177 C   0  0  0  0  0  0  0  0  0  0  0  0
   -3.6343    0.1884   -0.2004 C   0  0  0  0  0  0  0  0  0  0  0  0
    2.8591   -1.6394   -0.3293 C   0  0  0  0  0  0  0  0  0  0  0  0
   -2.4217   -0.3839    1.8617 C   0  0  0  0  0  0  0  0  0  0  0  0
    2.2354   -0.7379    1.9442 C   0  0  0  0  0  0  0  0  0  0  0  0
   -3.6939    1.5231   -0.3309 C   0  0  0  0  0  0  0  0  0  0  0  0
    4.3756   -1.6191   -0.2193 C   0  0  0  0  0  0  0  0  0  0  0  0
    4.1225    0.9237   -0.4055 C   0  0  0  0  0  0  0  0  0  0  0  0
   -4.7655   -0.6816   -0.4705 C   0  0  0  0  0  0  0  0  0  0  0  0
    4.9169   -0.2940   -0.6861 C   0  0  0  0  0  0  0  0  0  0  0  0
   -5.7761   -0.2494   -1.5114 C   0  0  0  0  0  0  0  0  0  0  0  0
   -0.0948    0.9428    1.4986 H   0  0  0  0  0  0  0  0  0  0  0  0
    0.7343   -0.2733   -1.1847 H   0  0  0  0  0  0  0  0  0  0  0  0
   -1.3335    0.8455   -1.2658 H   0  0  0  0  0  0  0  0  0  0  0  0
   -0.1393   -1.9171    1.2244 H   0  0  0  0  0  0  0  0  0  0  0  0
    0.2581   -2.4900   -0.3812 H   0  0  0  0  0  0  0  0  0  0  0  0
   -1.7014   -1.4954   -1.3621 H   0  0  0  0  0  0  0  0  0  0  0  0
   -2.1941   -2.4191    0.0468 H   0  0  0  0  0  0  0  0  0  0  0  0
    0.2668    3.0812    0.3341 H   0  0  0  0  0  0  0  0  0  0  0  0
    0.7824    2.2380   -1.1246 H   0  0  0  0  0  0  0  0  0  0  0  0
   -2.1171    2.9535   -0.6927 H   0  0  0  0  0  0  0  0  0  0  0  0
   -2.3697    2.5524    1.0307 H   0  0  0  0  0  0  0  0  0  0  0  0
    2.1511    2.2018    1.6117 H   0  0  0  0  0  0  0  0  0  0  0  0
    2.7182    3.0082    0.1601 H   0  0  0  0  0  0  0  0  0  0  0  0
    2.5967   -1.5950   -1.3957 H   0  0  0  0  0  0  0  0  0  0  0  0
    2.4967   -2.6067    0.0390 H   0  0  0  0  0  0  0  0  0  0  0  0
   -2.8519    0.5151    2.3181 H   0  0  0  0  0  0  0  0  0  0  0  0
   -3.0714   -1.2250    2.1316 H   0  0  0  0  0  0  0  0  0  0  0  0
   -1.4612   -0.5559    2.3546 H   0  0  0  0  0  0  0  0  0  0  0  0
    1.6457   -0.0197    2.5219 H   0  0  0  0  0  0  0  0  0  0  0  0
    1.8700   -1.7393    2.1945 H   0  0  0  0  0  0  0  0  0  0  0  0
    3.2649   -0.6731    2.3158 H   0  0  0  0  0  0  0  0  0  0  0  0
   -4.5572    2.0971   -0.6347 H   0  0  0  0  0  0  0  0  0  0  0  0
    4.7920   -2.4082   -0.8552 H   0  0  0  0  0  0  0  0  0  0  0  0
    4.7125   -1.7957    0.8069 H   0  0  0  0  0  0  0  0  0  0  0  0
    4.6034    1.8750   -0.6071 H   0  0  0  0  0  0  0  0  0  0  0  0
   -5.2815    0.2465   -2.3512 H   0  0  0  0  0  0  0  0  0  0  0  0
   -6.5133    0.4165   -1.0562 H   0  0  0  0  0  0  0  0  0  0  0  0
   -6.2843   -1.1350   -1.9051 H   0  0  0  0  0  0  0  0  0  0  0  0
  1 21  2  0  0  0  0
  2 22  2  0  0  0  0
  3  4  1  0  0  0  0
  3  5  1  0  0  0  0
  3 10  1  0  0  0  0
  3 24  1  0  0  0  0
  4  7  1  0  0  0  0
  4  8  1  0  0  0  0
  4 25  1  0  0  0  0
  5  6  1  0  0  0  0
  5 11  1  0  0  0  0
  5 26  1  0  0  0  0
  6  9  1  0  0  0  0
  6 14  1  0  0  0  0
  6 16  1  0  0  0  0
  7 12  1  0  0  0  0
  7 15  1  0  0  0  0
  7 17  1  0  0  0  0
  8  9  1  0  0  0  0
  8 27  1  0  0  0  0
  8 28  1  0  0  0  0
  9 29  1  0  0  0  0
  9 30  1  0  0  0  0
 10 13  1  0  0  0  0
 10 31  1  0  0  0  0
 10 32  1  0  0  0  0
 11 18  1  0  0  0  0
 11 33  1  0  0  0  0
 11 34  1  0  0  0  0
 12 13  1  0  0  0  0
 12 20  2  0  0  0  0
 13 35  1  0  0  0  0
 13 36  1  0  0  0  0
 14 18  2  0  0  0  0
 14 21  1  0  0  0  0
 15 19  1  0  0  0  0
 15 37  1  0  0  0  0
 15 38  1  0  0  0  0
 16 39  1  0  0  0  0
 16 40  1  0  0  0  0
 16 41  1  0  0  0  0
 17 42  1  0  0  0  0
 17 43  1  0  0  0  0
 17 44  1  0  0  0  0
 18 45  1  0  0  0  0
 19 22  1  0  0  0  0
 19 46  1  0  0  0  0
 19 47  1  0  0  0  0
 20 22  1  0  0  0  0
 20 48  1  0  0  0  0
 21 23  1  0  0  0  0
 23 49  1  0  0  0  0
 23 50  1  0  0  0  0
 23 51  1  0  0  0  0
M  END
> <PUBCHEM_COMPOUND_CID>
101964

> <PUBCHEM_CONFORMER_RMSD>
0.6

> <PUBCHEM_CONFORMER_DIVERSEORDER>
1
2
3

> <PUBCHEM_MMFF94_PARTIAL_CHARGES>
16
1 -0.57
11 0.14
12 -0.28
13 0.14
14 -0.12
18 -0.29
19 0.06
2 -0.57
20 -0.14
21 0.49
22 0.49
23 0.06
45 0.15
48 0.15
6 0.14
7 0.14

> <PUBCHEM_EFFECTIVE_ROTOR_COUNT>
2.4

> <PUBCHEM_PHARMACOPHORE_FEATURES>
6
1 1 acceptor
1 2 acceptor
5 5 6 11 14 18 rings
6 3 4 5 6 8 9 rings
6 3 4 7 10 12 13 rings
6 7 12 15 19 20 22 rings

> <PUBCHEM_HEAVY_ATOM_COUNT>
23

> <PUBCHEM_ATOM_DEF_STEREO_COUNT>
5

> <PUBCHEM_ATOM_UDEF_STEREO_COUNT>
0

> <PUBCHEM_BOND_DEF_STEREO_COUNT>
0

> <PUBCHEM_BOND_UDEF_STEREO_COUNT>
0

> <PUBCHEM_ISOTOPIC_ATOM_COUNT>
0

> <PUBCHEM_COMPONENT_COUNT>
1

> <PUBCHEM_CACTVS_TAUTO_COUNT>
25

> <PUBCHEM_CONFORMER_ID>
00018E4C00000001

> <PUBCHEM_MMFF94_ENERGY>
68.742

> <PUBCHEM_FEATURE_SELFOVERLAP>
30.55

> <PUBCHEM_SHAPE_FINGERPRINT>
10366900 7 18040435498920861689
10498660 4 18260543381579420445
11089746 13 14057002753787944726
12011746 2 18334856121384325309
12166972 35 17775284988569993257
12403259 226 18341324561360601681
12403259 415 18202275896968841241
12596602 18 12973882577341070261
12788726 201 18262232227498275169
13224815 77 18259703397745374457
13288520 33 18272937115428751365
13533116 47 17703226333643585433
13583140 156 16588029026152321993
13862211 1 18413106135230381102
14790565 3 17332251896612139681
15196674 1 18411136913677742628
15536298 74 18342734152172648344
16752209 62 18410286978304518193
16945 1 18338520866765150288
17349148 13 17489872652293619903
1813 80 14261354677801327568
18222031 100 18130777962754535319
19591789 44 18410854334894527838
19862831 5 18335423448062486272
200 152 17989204854610909625
20028762 73 17846489374733998167
20645477 70 18337668715099227316
20871999 31 18408606933105968844
21267235 1 18412553127630338911
221357 26 18413105056787453509
221490 88 18337677536771818083
22393880 68 18334849494302716869
23402539 116 18343300327572513116
23559900 14 18339355374589506377
2871803 45 18334289877006507752
296302 2 13839986620638638608
3004659 81 18188774942911563606
3286 77 16845285034109443290
335352 9 18412262823060750077
350125 39 18411985728687138257
4214541 1 18411983529141467853
4280585 95 17405433200434917022
465052 167 18059859505865767567
474 4 17168437059828218708
5104073 3 18341328920514647841
59755656 215 18409444757341228349
7495541 125 17561359604160362090
9709674 26 18335701706140184947

> <PUBCHEM_SHAPE_MULTIPOLES>
461.59
11.31
2.11
1.17
0.63
0.58
-0.38
-2.63
4.64
-0.02
-0.04
0.09
-0.22
0.12

> <PUBCHEM_SHAPE_SELFOVERLAP>
996.385

> <PUBCHEM_SHAPE_VOLUME>
253

> <PUBCHEM_COORDINATE_TYPE>
2
5
10

$$$$
