20845972
  -OEChem-09121600133D

 59 62  0     1  0  0  0  0  0999 V2000
    5.5114   -0.8741    0.8072 S   0  0  0  0  0  0  0  0  0  0  0  0
    4.2698    0.1852    0.7986 O   0  0  0  0  0  0  0  0  0  0  0  0
   -6.5189   -0.0531   -0.2430 O   0  0  0  0  0  0  0  0  0  0  0  0
    5.6266   -1.3177    2.3729 O   0  0  0  0  0  0  0  0  0  0  0  0
    5.0916   -2.0401    0.0524 O   0  0  0  0  0  0  0  0  0  0  0  0
    6.7323   -0.1756    0.4504 O   0  0  0  0  0  0  0  0  0  0  0  0
   -3.2729    0.1364    0.1281 C   0  0  2  0  0  0  0  0  0  0  0  0
   -2.2587   -1.0100   -0.0556 C   0  0  2  0  0  0  0  0  0  0  0  0
   -0.9573   -0.5655   -0.7306 C   0  0  1  0  0  0  0  0  0  0  0  0
   -0.2982    0.5691    0.1062 C   0  0  1  0  0  0  0  0  0  0  0  0
    1.0323    1.0905   -0.5718 C   0  0  2  0  0  0  0  0  0  0  0  0
   -2.6310    1.1755    1.0573 C   0  0  0  0  0  0  0  0  0  0  0  0
   -4.4394   -0.6588    0.7549 C   0  0  2  0  0  0  0  0  0  0  0  0
   -1.3000    1.6944    0.4864 C   0  0  0  0  0  0  0  0  0  0  0  0
   -3.0836   -2.1151   -0.7058 C   0  0  0  0  0  0  0  0  0  0  0  0
   -4.4614   -1.9866   -0.0315 C   0  0  0  0  0  0  0  0  0  0  0  0
    0.0127   -1.7478   -0.8724 C   0  0  0  0  0  0  0  0  0  0  0  0
    1.8906   -0.0823   -1.0648 C   0  0  0  0  0  0  0  0  0  0  0  0
   -3.7060    0.8082   -1.2007 C   0  0  0  0  0  0  0  0  0  0  0  0
    1.8354    1.8969    0.4907 C   0  0  0  0  0  0  0  0  0  0  0  0
    1.4175   -1.3363   -1.1755 C   0  0  0  0  0  0  0  0  0  0  0  0
    0.7252    2.0017   -1.7844 C   0  0  0  0  0  0  0  0  0  0  0  0
    3.3310    0.2144   -1.4307 C   0  0  0  0  0  0  0  0  0  0  0  0
    3.2658    2.2469    0.0703 C   0  0  0  0  0  0  0  0  0  0  0  0
   -5.7588    0.0481    0.7187 C   0  0  0  0  0  0  0  0  0  0  0  0
    4.0546    1.0095   -0.3454 C   0  0  1  0  0  0  0  0  0  0  0  0
   -6.1105    0.8864    1.9179 C   0  0  0  0  0  0  0  0  0  0  0  0
   -1.9810   -1.3851    0.9443 H   0  0  0  0  0  0  0  0  0  0  0  0
   -1.1794   -0.1962   -1.7382 H   0  0  0  0  0  0  0  0  0  0  0  0
   -0.0080    0.1048    1.0630 H   0  0  0  0  0  0  0  0  0  0  0  0
   -2.4436    0.7377    2.0461 H   0  0  0  0  0  0  0  0  0  0  0  0
   -3.3038    2.0253    1.2150 H   0  0  0  0  0  0  0  0  0  0  0  0
   -4.2156   -0.9020    1.8029 H   0  0  0  0  0  0  0  0  0  0  0  0
   -1.5208    2.3225   -0.3813 H   0  0  0  0  0  0  0  0  0  0  0  0
   -0.8470    2.3548    1.2345 H   0  0  0  0  0  0  0  0  0  0  0  0
   -2.6499   -3.1065   -0.5397 H   0  0  0  0  0  0  0  0  0  0  0  0
   -3.1698   -1.9679   -1.7881 H   0  0  0  0  0  0  0  0  0  0  0  0
   -5.2511   -2.0471   -0.7874 H   0  0  0  0  0  0  0  0  0  0  0  0
   -4.6243   -2.8219    0.6600 H   0  0  0  0  0  0  0  0  0  0  0  0
    0.0287   -2.3477    0.0460 H   0  0  0  0  0  0  0  0  0  0  0  0
   -0.3414   -2.4066   -1.6745 H   0  0  0  0  0  0  0  0  0  0  0  0
   -4.2325    0.1176   -1.8672 H   0  0  0  0  0  0  0  0  0  0  0  0
   -4.3788    1.6517   -1.0074 H   0  0  0  0  0  0  0  0  0  0  0  0
   -2.8609    1.2075   -1.7676 H   0  0  0  0  0  0  0  0  0  0  0  0
    1.3151    2.8315    0.7327 H   0  0  0  0  0  0  0  0  0  0  0  0
    1.8857    1.3241    1.4267 H   0  0  0  0  0  0  0  0  0  0  0  0
    2.0795   -2.1314   -1.5104 H   0  0  0  0  0  0  0  0  0  0  0  0
    0.0689    1.5076   -2.5082 H   0  0  0  0  0  0  0  0  0  0  0  0
    1.6301    2.2932   -2.3278 H   0  0  0  0  0  0  0  0  0  0  0  0
    0.2438    2.9356   -1.4769 H   0  0  0  0  0  0  0  0  0  0  0  0
    3.8720   -0.7084   -1.6606 H   0  0  0  0  0  0  0  0  0  0  0  0
    3.3356    0.7978   -2.3597 H   0  0  0  0  0  0  0  0  0  0  0  0
    3.7648    2.7354    0.9160 H   0  0  0  0  0  0  0  0  0  0  0  0
    3.2452    2.9699   -0.7530 H   0  0  0  0  0  0  0  0  0  0  0  0
    5.0255    1.3443   -0.7299 H   0  0  0  0  0  0  0  0  0  0  0  0
   -6.0473    0.2811    2.8255 H   0  0  0  0  0  0  0  0  0  0  0  0
   -7.1371    1.2506    1.8180 H   0  0  0  0  0  0  0  0  0  0  0  0
   -5.4413    1.7449    1.9882 H   0  0  0  0  0  0  0  0  0  0  0  0
    6.3390   -1.9687    2.5754 H   0  0  0  0  0  0  0  0  0  0  0  0
  1  2  1  0  0  0  0
  1  4  1  0  0  0  0
  1  5  2  0  0  0  0
  1  6  2  0  0  0  0
  2 26  1  0  0  0  0
  3 25  2  0  0  0  0
  4 59  1  0  0  0  0
  7  8  1  0  0  0  0
  7 12  1  0  0  0  0
  7 13  1  0  0  0  0
  7 19  1  0  0  0  0
  8  9  1  0  0  0  0
  8 15  1  0  0  0  0
  8 28  1  0  0  0  0
  9 10  1  0  0  0  0
  9 17  1  0  0  0  0
  9 29  1  0  0  0  0
 10 11  1  0  0  0  0
 10 14  1  0  0  0  0
 10 30  1  0  0  0  0
 11 18  1  0  0  0  0
 11 20  1  0  0  0  0
 11 22  1  0  0  0  0
 12 14  1  0  0  0  0
 12 31  1  0  0  0  0
 12 32  1  0  0  0  0
 13 16  1  0  0  0  0
 13 25  1  0  0  0  0
 13 33  1  0  0  0  0
 14 34  1  0  0  0  0
 14 35  1  0  0  0  0
 15 16  1  0  0  0  0
 15 36  1  0  0  0  0
 15 37  1  0  0  0  0
 16 38  1  0  0  0  0
 16 39  1  0  0  0  0
 17 21  1  0  0  0  0
 17 40  1  0  0  0  0
 17 41  1  0  0  0  0
 18 21  2  0  0  0  0
 18 23  1  0  0  0  0
 19 42  1  0  0  0  0
 19 43  1  0  0  0  0
 19 44  1  0  0  0  0
 20 24  1  0  0  0  0
 20 45  1  0  0  0  0
 20 46  1  0  0  0  0
 21 47  1  0  0  0  0
 22 48  1  0  0  0  0
 22 49  1  0  0  0  0
 22 50  1  0  0  0  0
 23 26  1  0  0  0  0
 23 51  1  0  0  0  0
 23 52  1  0  0  0  0
 24 26  1  0  0  0  0
 24 53  1  0  0  0  0
 24 54  1  0  0  0  0
 25 27  1  0  0  0  0
 26 55  1  0  0  0  0
 27 56  1  0  0  0  0
 27 57  1  0  0  0  0
 27 58  1  0  0  0  0
M  END
> <PUBCHEM_COMPOUND_CID>
20845972

> <PUBCHEM_CONFORMER_RMSD>
0.8

> <PUBCHEM_CONFORMER_DIVERSEORDER>
1
21
25
23
20
17
6
24
22
16
14
9
19
10
2
27
15
13
12
8
5
26
7
3
11
18
4

> <PUBCHEM_MMFF94_PARTIAL_CHARGES>
17
1 1.67
11 0.14
13 0.06
17 0.14
18 -0.28
2 -0.46
21 -0.29
23 0.14
25 0.45
26 0.28
27 0.06
3 -0.57
4 -0.68
47 0.15
5 -0.65
59 0.5
6 -0.65

> <PUBCHEM_EFFECTIVE_ROTOR_COUNT>
5

> <PUBCHEM_PHARMACOPHORE_FEATURES>
9
1 3 acceptor
1 4 acceptor
1 5 acceptor
1 6 acceptor
4 1 4 5 6 anion
5 7 8 13 15 16 rings
6 11 18 20 23 24 26 rings
6 7 8 9 10 12 14 rings
6 9 10 11 17 18 21 rings

> <PUBCHEM_HEAVY_ATOM_COUNT>
27

> <PUBCHEM_ATOM_DEF_STEREO_COUNT>
6

> <PUBCHEM_ATOM_UDEF_STEREO_COUNT>
1

> <PUBCHEM_BOND_DEF_STEREO_COUNT>
0

> <PUBCHEM_BOND_UDEF_STEREO_COUNT>
0

> <PUBCHEM_ISOTOPIC_ATOM_COUNT>
0

> <PUBCHEM_COMPONENT_COUNT>
1

> <PUBCHEM_CACTVS_TAUTO_COUNT>
3

> <PUBCHEM_CONFORMER_ID>
013E159400000001

> <PUBCHEM_MMFF94_ENERGY>
73.8473

> <PUBCHEM_FEATURE_SELFOVERLAP>
45.826

> <PUBCHEM_SHAPE_FINGERPRINT>
10 15 18342746251295793057
11405975 8 18341336694669021537
11456790 92 18271255971641955897
11961588 58 11815891254039487228
12166972 35 18186523232316401709
12236239 1 18334297607968700588
12403260 363 18057881540492716389
12422481 6 18342178834391780295
12616971 3 18410855494635619511
12633257 1 18130790083337107936
12839892 36 18273493472797641238
13140716 1 18200312259211044087
13224815 77 18271814570160372821
13533116 47 18040435499469338440
13668630 136 15140684673993416746
13685833 64 17022623070220628968
13782708 43 16371017355542823427
13785724 45 18198633125316422910
13914758 101 17968083202150743471
14178342 30 18057334894093277936
14251764 18 18411981403369779900
14251764 30 16298386863832138162
14341114 176 17676492778172200837
15196674 1 18201166567335612997
15788980 27 17894910736895842884
17349148 13 18412266163701066556
17857418 61 18407757045246624274
1813 80 17676492709927192526
20028762 73 18130785711182370286
21033648 29 16773503418154965802
21150785 3 11530488838968996706
21267235 1 18410295775494760102
21421861 104 18336268955071370906
21637258 2 16805592669337834192
21792934 111 18200602398091631825
21859007 373 18116708518057002221
221357 26 11818994097296473503
23402539 116 17917429869426411565
23522609 53 18118715255162910621
23559900 14 17774458147700026020
23569917 315 18202568406144739327
2838139 119 12967123931084054362
3004659 81 18341060687207063708
335352 9 18272660059920680165
345986 75 18116696462199424832
34797466 226 12823300121583186385
34934 24 18131077047825134071
350125 39 18342742935607771276
3680242 22 18342748398568392587
3886686 26 17331113898061479802
392239 28 17775291594398226771
4072396 5 18343865515272467390
4073 2 17971759028140847952
4093350 32 16128108740992160815
4325135 7 9079118851669649272
46194498 28 14562535093922146734
465052 167 18260551117485121514
5104073 3 18269562796174501051
513202 73 17531802450709116133
59755656 215 18200890507917154079
8509985 295 18342738533492685016

> <PUBCHEM_SHAPE_MULTIPOLES>
530.15
14.59
2.2
1.5
1.25
0.12
-0.26
2.94
-7.09
0.53
0.16
0.64
-0.08
-1.43

> <PUBCHEM_SHAPE_SELFOVERLAP>
1112.949

> <PUBCHEM_SHAPE_VOLUME>
302.6

> <PUBCHEM_COORDINATE_TYPE>
2
5
10

$$$$
