16663321
  -OEChem-09111620243D

 39 38  0     1  0  0  0  0  0999 V2000
    5.2965   -1.8246   -0.0028 O   0  0  0  0  0  0  0  0  0  0  0  0
    4.9508    2.4547   -0.5035 O   0  0  0  0  0  0  0  0  0  0  0  0
    5.5083    0.8703    1.0297 O   0  0  0  0  0  0  0  0  0  0  0  0
   -6.9104    0.7693   -1.4051 O   0  0  0  0  0  0  0  0  0  0  0  0
   -5.9100   -1.1634   -0.7566 O   0  0  0  0  0  0  0  0  0  0  0  0
    0.5389   -0.6624    0.6848 C   0  0  0  0  0  0  0  0  0  0  0  0
   -0.7433   -0.1181    0.0508 C   0  0  0  0  0  0  0  0  0  0  0  0
    1.7161   -0.5811   -0.2888 C   0  0  0  0  0  0  0  0  0  0  0  0
   -1.9291   -0.2282    1.0126 C   0  0  0  0  0  0  0  0  0  0  0  0
    3.0246   -1.1197    0.2946 C   0  0  0  0  0  0  0  0  0  0  0  0
   -3.2020    0.3459    0.3907 C   0  0  0  0  0  0  0  0  0  0  0  0
    4.2215   -1.1553   -0.6649 C   0  0  1  0  0  0  0  0  0  0  0  0
   -4.4400    0.2367    1.2884 C   0  0  0  0  0  0  0  0  0  0  0  0
    4.6978    0.2093   -1.1734 C   0  0  0  0  0  0  0  0  0  0  0  0
   -5.7249    0.7819    0.6674 C   0  0  0  0  0  0  0  0  0  0  0  0
    5.0880    1.1734   -0.0768 C   0  0  0  0  0  0  0  0  0  0  0  0
   -6.1828    0.0114   -0.5471 C   0  0  0  0  0  0  0  0  0  0  0  0
    0.7732   -0.0930    1.5922 H   0  0  0  0  0  0  0  0  0  0  0  0
    0.3864   -1.7055    0.9872 H   0  0  0  0  0  0  0  0  0  0  0  0
   -0.9645   -0.6737   -0.8685 H   0  0  0  0  0  0  0  0  0  0  0  0
   -0.5947    0.9310   -0.2327 H   0  0  0  0  0  0  0  0  0  0  0  0
    1.8562    0.4636   -0.5899 H   0  0  0  0  0  0  0  0  0  0  0  0
    1.4730   -1.1448   -1.1979 H   0  0  0  0  0  0  0  0  0  0  0  0
   -1.7038    0.3080    1.9423 H   0  0  0  0  0  0  0  0  0  0  0  0
   -2.0921   -1.2800    1.2766 H   0  0  0  0  0  0  0  0  0  0  0  0
    3.2804   -0.5522    1.1979 H   0  0  0  0  0  0  0  0  0  0  0  0
    2.8509   -2.1437    0.6531 H   0  0  0  0  0  0  0  0  0  0  0  0
   -3.0372    1.4022    0.1432 H   0  0  0  0  0  0  0  0  0  0  0  0
   -3.3918   -0.1703   -0.5577 H   0  0  0  0  0  0  0  0  0  0  0  0
    3.9609   -1.7735   -1.5316 H   0  0  0  0  0  0  0  0  0  0  0  0
   -4.5876   -0.8147    1.5654 H   0  0  0  0  0  0  0  0  0  0  0  0
   -4.2472    0.7814    2.2209 H   0  0  0  0  0  0  0  0  0  0  0  0
    3.9073    0.6640   -1.7804 H   0  0  0  0  0  0  0  0  0  0  0  0
    5.5845    0.0793   -1.8047 H   0  0  0  0  0  0  0  0  0  0  0  0
   -5.5660    1.8279    0.3807 H   0  0  0  0  0  0  0  0  0  0  0  0
   -6.5360    0.7494    1.4030 H   0  0  0  0  0  0  0  0  0  0  0  0
    5.5117   -1.3256    0.8033 H   0  0  0  0  0  0  0  0  0  0  0  0
    5.2168    3.1002    0.1856 H   0  0  0  0  0  0  0  0  0  0  0  0
   -7.1902    0.2607   -2.1959 H   0  0  0  0  0  0  0  0  0  0  0  0
  1 12  1  0  0  0  0
  1 37  1  0  0  0  0
  2 16  1  0  0  0  0
  2 38  1  0  0  0  0
  3 16  2  0  0  0  0
  4 17  1  0  0  0  0
  4 39  1  0  0  0  0
  5 17  2  0  0  0  0
  6  7  1  0  0  0  0
  6  8  1  0  0  0  0
  6 18  1  0  0  0  0
  6 19  1  0  0  0  0
  7  9  1  0  0  0  0
  7 20  1  0  0  0  0
  7 21  1  0  0  0  0
  8 10  1  0  0  0  0
  8 22  1  0  0  0  0
  8 23  1  0  0  0  0
  9 11  1  0  0  0  0
  9 24  1  0  0  0  0
  9 25  1  0  0  0  0
 10 12  1  0  0  0  0
 10 26  1  0  0  0  0
 10 27  1  0  0  0  0
 11 13  1  0  0  0  0
 11 28  1  0  0  0  0
 11 29  1  0  0  0  0
 12 14  1  0  0  0  0
 12 30  1  0  0  0  0
 13 15  1  0  0  0  0
 13 31  1  0  0  0  0
 13 32  1  0  0  0  0
 14 16  1  0  0  0  0
 14 33  1  0  0  0  0
 14 34  1  0  0  0  0
 15 17  1  0  0  0  0
 15 35  1  0  0  0  0
 15 36  1  0  0  0  0
M  END
> <PUBCHEM_COMPOUND_CID>
16663321

> <PUBCHEM_CONFORMER_RMSD>
1

> <PUBCHEM_CONFORMER_DIVERSEORDER>
1
78
131
2
154
44
37
48
168
142
75
54
82
105
139
40
61
13
179
60
12
116
27
36
22
41
171
158
77
69
17
151
161
125
5
145
38
147
134
165
43
181
149
39
140
84
153
155
135
128
11
64
73
15
173
127
32
180
68
143
141
18
93
98
169
117
176
124
104
175
80
26
58
29
23
35
88
112
164
92
62
170
144
72
174
99
90
20
59
122
138
137
130
113
111
132
150
31
66
172
157
14
97
162
52
70
74
159
86
65
85
49
79
67
119
163
87
114
129
123
107
118
133
3
167
57
33
16
121
152
103
24
106
21
53
34
83
136
126
160
42
19
25
178
108
94
95
47
45
9
46
115
30
4
51
96
110
7
63
81
8
76
146
120
148
156
71
56
10
100
177
101
6
55
91
89
102
109
50
166
28

> <PUBCHEM_MMFF94_PARTIAL_CHARGES>
13
1 -0.68
12 0.28
14 0.06
15 0.06
16 0.66
17 0.66
2 -0.65
3 -0.57
37 0.4
38 0.5
39 0.5
4 -0.65
5 -0.57

> <PUBCHEM_EFFECTIVE_ROTOR_COUNT>
11

> <PUBCHEM_PHARMACOPHORE_FEATURES>
8
1 1 acceptor
1 1 donor
1 2 acceptor
1 3 acceptor
1 4 acceptor
1 5 acceptor
3 2 3 16 anion
3 4 5 17 anion

> <PUBCHEM_HEAVY_ATOM_COUNT>
17

> <PUBCHEM_ATOM_DEF_STEREO_COUNT>
0

> <PUBCHEM_ATOM_UDEF_STEREO_COUNT>
1

> <PUBCHEM_BOND_DEF_STEREO_COUNT>
0

> <PUBCHEM_BOND_UDEF_STEREO_COUNT>
0

> <PUBCHEM_ISOTOPIC_ATOM_COUNT>
0

> <PUBCHEM_COMPONENT_COUNT>
1

> <PUBCHEM_CACTVS_TAUTO_COUNT>
1

> <PUBCHEM_CONFORMER_ID>
00FE431900000001

> <PUBCHEM_MMFF94_ENERGY>
9.9181

> <PUBCHEM_FEATURE_SELFOVERLAP>
40.716

> <PUBCHEM_SHAPE_FINGERPRINT>
10912923 1 17846225406001254819
13533116 47 17095797716559449378
14251718 22 17775568641448316483
14251732 16 18202001075044015343
14528608 73 18202288008660265848
15110567 62 10519719868872330788
16079462 125 17530681013684620773
17834072 33 17989208144249929315
18927931 339 15410892960472864433
20157964 124 18410014338566009186
20281389 69 12684812221545057375
21150785 3 15913326922544088496
21196832 93 18057034938405497759
220451 1 16773804662844988539
2297311 6 14333413346214030155
23081809 10 17632301142488423835
23402539 116 18201440230009489745
23590187 90 18334579053022987128
2767999 5 17676205779846260061
300161 21 18040715870412983995
328310 630 18339092531677090369
34797466 226 14836124394544184592
4072396 5 15357693093829637298
465052 167 10015590497691825608

> <PUBCHEM_SHAPE_MULTIPOLES>
320.51
19.97
1.5
1.15
14.76
0.39
0.06
3.83
4.56
-2.75
0.16
0.9
0.1
-0.23

> <PUBCHEM_SHAPE_SELFOVERLAP>
601.518

> <PUBCHEM_SHAPE_VOLUME>
198

> <PUBCHEM_COORDINATE_TYPE>
2
5
10

$$$$
