5351896
  -OEChem-09111619553D

 18 17  0     0  0  0  0  0  0999 V2000
   -3.9467    0.2838   -0.4603 O   0  0  0  0  0  0  0  0  0  0  0  0
    3.9345    0.2957    0.4875 O   0  0  0  0  0  0  0  0  0  0  0  0
   -2.3252    1.2197    0.8320 O   0  0  0  0  0  0  0  0  0  0  0  0
    2.3381    1.2013   -0.8565 O   0  0  0  0  0  0  0  0  0  0  0  0
   -1.9276   -0.9066   -0.3077 C   0  0  0  0  0  0  0  0  0  0  0  0
    1.9266   -0.9095    0.3070 C   0  0  0  0  0  0  0  0  0  0  0  0
   -0.5780   -0.9046    0.3409 C   0  0  0  0  0  0  0  0  0  0  0  0
    0.5770   -0.9054   -0.3415 C   0  0  0  0  0  0  0  0  0  0  0  0
   -2.7125    0.3151    0.1076 C   0  0  0  0  0  0  0  0  0  0  0  0
    2.7138    0.3105   -0.1092 C   0  0  0  0  0  0  0  0  0  0  0  0
   -1.8454   -0.9112   -1.3999 H   0  0  0  0  0  0  0  0  0  0  0  0
   -2.4740   -1.7995    0.0141 H   0  0  0  0  0  0  0  0  0  0  0  0
    2.4723   -1.8032   -0.0133 H   0  0  0  0  0  0  0  0  0  0  0  0
    1.8432   -0.9128    1.3993 H   0  0  0  0  0  0  0  0  0  0  0  0
   -0.5531   -0.9149    1.4281 H   0  0  0  0  0  0  0  0  0  0  0  0
    0.5519   -0.9161   -1.4288 H   0  0  0  0  0  0  0  0  0  0  0  0
   -4.4818    1.0684   -0.2147 H   0  0  0  0  0  0  0  0  0  0  0  0
    4.4705    1.0798    0.2422 H   0  0  0  0  0  0  0  0  0  0  0  0
  1  9  1  0  0  0  0
  1 17  1  0  0  0  0
  2 10  1  0  0  0  0
  2 18  1  0  0  0  0
  3  9  2  0  0  0  0
  4 10  2  0  0  0  0
  5  7  1  0  0  0  0
  5  9  1  0  0  0  0
  5 11  1  0  0  0  0
  5 12  1  0  0  0  0
  6  8  1  0  0  0  0
  6 10  1  0  0  0  0
  6 13  1  0  0  0  0
  6 14  1  0  0  0  0
  7  8  2  0  0  0  0
  7 15  1  0  0  0  0
  8 16  1  0  0  0  0
M  END
> <PUBCHEM_COMPOUND_CID>
5351896

> <PUBCHEM_CONFORMER_RMSD>
0.6

> <PUBCHEM_CONFORMER_DIVERSEORDER>
1
19
2
12
15
5
16
7
11
18
6
14
4
9
13
17
20
10
8
3

> <PUBCHEM_MMFF94_PARTIAL_CHARGES>
14
1 -0.65
10 0.66
15 0.15
16 0.15
17 0.5
18 0.5
2 -0.65
3 -0.57
4 -0.57
5 0.2
6 0.2
7 -0.29
8 -0.29
9 0.66

> <PUBCHEM_EFFECTIVE_ROTOR_COUNT>
4

> <PUBCHEM_PHARMACOPHORE_FEATURES>
6
1 1 acceptor
1 2 acceptor
1 3 acceptor
1 4 acceptor
3 1 3 9 anion
3 2 4 10 anion

> <PUBCHEM_HEAVY_ATOM_COUNT>
10

> <PUBCHEM_ATOM_DEF_STEREO_COUNT>
0

> <PUBCHEM_ATOM_UDEF_STEREO_COUNT>
0

> <PUBCHEM_BOND_DEF_STEREO_COUNT>
1

> <PUBCHEM_BOND_UDEF_STEREO_COUNT>
0

> <PUBCHEM_ISOTOPIC_ATOM_COUNT>
0

> <PUBCHEM_COMPONENT_COUNT>
1

> <PUBCHEM_CACTVS_TAUTO_COUNT>
1

> <PUBCHEM_CONFORMER_ID>
0051A9D800000001

> <PUBCHEM_MMFF94_ENERGY>
3.6976

> <PUBCHEM_FEATURE_SELFOVERLAP>
30.563

> <PUBCHEM_SHAPE_FINGERPRINT>
10149128 111 18410579487004615780
10857977 72 14562817659408840359
12162725 195 18410576188469673985
12932764 1 16486965177038758271
14325111 11 18412263930260348875
14390081 3 18272934920616066963
14897335 6 18412258432670658982
15775835 57 18410857659156867496
170605 34 18408041792703753187
20281407 28 9367347020118616855
20653085 51 17985846847189034939
21293036 1 15913324710435496619
22169311 14 15574715802404976977
3248919 1 18409729564553625486

> <PUBCHEM_SHAPE_MULTIPOLES>
182.32
6.54
1.21
0.78
0.03
0.04
0
2.02
-0.01
0
0
-0.02
0.09
-0.4

> <PUBCHEM_SHAPE_SELFOVERLAP>
347.487

> <PUBCHEM_SHAPE_VOLUME>
111.1

> <PUBCHEM_COORDINATE_TYPE>
2
5
10

$$$$
