123675
  -OEChem-09111622243D

 35 36  0     1  0  0  0  0  0999 V2000
    1.0753    2.9014   -1.9774 I   0  0  0  0  0  0  0  0  0  0  0  0
    0.5184   -0.2121    3.2421 I   0  0  0  0  0  0  0  0  0  0  0  0
    1.8494    1.4594    0.8130 O   0  0  0  0  0  0  0  0  0  0  0  0
   -2.7828   -2.2515    0.0532 O   0  0  0  0  0  0  0  0  0  0  0  0
   -4.9581   -2.0150    0.6211 O   0  0  0  0  0  0  0  0  0  0  0  0
    5.2109   -2.4401   -1.1554 O   0  0  0  0  0  0  0  0  0  0  0  0
   -5.3019   -0.2944   -1.5806 N   0  0  0  0  0  0  0  0  0  0  0  0
   -3.6846    0.8570   -0.1367 C   0  0  0  0  0  0  0  0  0  0  0  0
   -4.0211   -0.4125   -0.9297 C   0  0  1  0  0  0  0  0  0  0  0  0
   -2.2051    1.0181    0.1173 C   0  0  0  0  0  0  0  0  0  0  0  0
   -1.6498    0.4742    1.2645 C   0  0  0  0  0  0  0  0  0  0  0  0
   -1.4292    1.7067   -0.8016 C   0  0  0  0  0  0  0  0  0  0  0  0
    0.5109    1.3136    0.5833 C   0  0  0  0  0  0  0  0  0  0  0  0
   -0.0624    1.8555   -0.5671 C   0  0  0  0  0  0  0  0  0  0  0  0
   -0.2828    0.6229    1.4990 C   0  0  0  0  0  0  0  0  0  0  0  0
   -3.9820   -1.6249   -0.0110 C   0  0  0  0  0  0  0  0  0  0  0  0
    2.6926    0.4812    0.3195 C   0  0  0  0  0  0  0  0  0  0  0  0
    2.1540   -0.5879   -0.3756 C   0  0  0  0  0  0  0  0  0  0  0  0
    4.0560    0.5937    0.5317 C   0  0  0  0  0  0  0  0  0  0  0  0
    3.0047   -1.5748   -0.8738 C   0  0  0  0  0  0  0  0  0  0  0  0
    4.9067   -0.3932    0.0334 C   0  0  0  0  0  0  0  0  0  0  0  0
    4.3809   -1.4774   -0.6693 C   0  0  0  0  0  0  0  0  0  0  0  0
   -4.0304    1.7480   -0.6797 H   0  0  0  0  0  0  0  0  0  0  0  0
   -4.2259    0.8757    0.8194 H   0  0  0  0  0  0  0  0  0  0  0  0
   -3.2795   -0.5816   -1.7204 H   0  0  0  0  0  0  0  0  0  0  0  0
   -2.2796   -0.0567    1.9738 H   0  0  0  0  0  0  0  0  0  0  0  0
   -1.8887    2.1213   -1.6955 H   0  0  0  0  0  0  0  0  0  0  0  0
   -5.2970    0.4996   -2.2199 H   0  0  0  0  0  0  0  0  0  0  0  0
   -6.0270   -0.0923   -0.8929 H   0  0  0  0  0  0  0  0  0  0  0  0
    1.0978   -0.7311   -0.5733 H   0  0  0  0  0  0  0  0  0  0  0  0
    4.4666    1.4372    1.0785 H   0  0  0  0  0  0  0  0  0  0  0  0
    2.5901   -2.4175   -1.4206 H   0  0  0  0  0  0  0  0  0  0  0  0
    5.9770   -0.3055    0.1996 H   0  0  0  0  0  0  0  0  0  0  0  0
   -2.8049   -3.0252    0.6558 H   0  0  0  0  0  0  0  0  0  0  0  0
    6.1275   -2.2130   -0.9224 H   0  0  0  0  0  0  0  0  0  0  0  0
  1 14  1  0  0  0  0
  2 15  1  0  0  0  0
  3 13  1  0  0  0  0
  3 17  1  0  0  0  0
  4 16  1  0  0  0  0
  4 34  1  0  0  0  0
  5 16  2  0  0  0  0
  6 22  1  0  0  0  0
  6 35  1  0  0  0  0
  7  9  1  0  0  0  0
  7 28  1  0  0  0  0
  7 29  1  0  0  0  0
  8  9  1  0  0  0  0
  8 10  1  0  0  0  0
  8 23  1  0  0  0  0
  8 24  1  0  0  0  0
  9 16  1  0  0  0  0
  9 25  1  0  0  0  0
 10 11  2  0  0  0  0
 10 12  1  0  0  0  0
 11 15  1  0  0  0  0
 11 26  1  0  0  0  0
 12 14  2  0  0  0  0
 12 27  1  0  0  0  0
 13 14  1  0  0  0  0
 13 15  2  0  0  0  0
 17 18  2  0  0  0  0
 17 19  1  0  0  0  0
 18 20  1  0  0  0  0
 18 30  1  0  0  0  0
 19 21  2  0  0  0  0
 19 31  1  0  0  0  0
 20 22  2  0  0  0  0
 20 32  1  0  0  0  0
 21 22  1  0  0  0  0
 21 33  1  0  0  0  0
M  END
> <PUBCHEM_COMPOUND_CID>
123675

> <PUBCHEM_CONFORMER_RMSD>
0.8

> <PUBCHEM_CONFORMER_DIVERSEORDER>
1
20
9
16
15
17
11
14
10
7
18
8
19
5
22
6
21
2
3
12
13
4

> <PUBCHEM_MMFF94_PARTIAL_CHARGES>
32
1 -0.08
10 -0.14
11 -0.15
12 -0.15
13 0.08
14 0.08
15 0.08
16 0.66
17 0.08
18 -0.15
19 -0.15
2 -0.08
20 -0.15
21 -0.15
22 0.08
26 0.15
27 0.15
28 0.36
29 0.36
3 -0.17
30 0.15
31 0.15
32 0.15
33 0.15
34 0.5
35 0.45
4 -0.65
5 -0.57
6 -0.53
7 -0.99
8 0.14
9 0.33

> <PUBCHEM_EFFECTIVE_ROTOR_COUNT>
5

> <PUBCHEM_PHARMACOPHORE_FEATURES>
11
1 1 hydrophobe
1 2 hydrophobe
1 3 acceptor
1 4 acceptor
1 5 acceptor
1 6 donor
1 7 cation
1 7 donor
3 4 5 16 anion
6 10 11 12 13 14 15 rings
6 17 18 19 20 21 22 rings

> <PUBCHEM_HEAVY_ATOM_COUNT>
22

> <PUBCHEM_ATOM_DEF_STEREO_COUNT>
0

> <PUBCHEM_ATOM_UDEF_STEREO_COUNT>
1

> <PUBCHEM_BOND_DEF_STEREO_COUNT>
0

> <PUBCHEM_BOND_UDEF_STEREO_COUNT>
0

> <PUBCHEM_ISOTOPIC_ATOM_COUNT>
0

> <PUBCHEM_COMPONENT_COUNT>
1

> <PUBCHEM_CACTVS_TAUTO_COUNT>
2

> <PUBCHEM_CONFORMER_ID>
0001E31B00000001

> <PUBCHEM_MMFF94_ENERGY>
65.3445

> <PUBCHEM_FEATURE_SELFOVERLAP>
55.88

> <PUBCHEM_SHAPE_FINGERPRINT>
10074138 170 15982865350706759754
11135609 12 18190468349278311979
11578080 2 15980837894779679712
12596602 18 14692561160862613623
12644460 14 15553871334222709104
12670546 177 17895193350076135316
13103583 49 16056604287355453779
13149001 5 16951143896334483496
13402501 40 18413952784579494047
13544653 18 17917712404827384399
13583140 156 17275091821593834304
14739800 52 9583251487104076799
15163728 17 13551760552165311475
15209294 21 10879996860871697945
15375462 189 16415185785365325608
15475509 35 17274246383510148159
15475509 8 18189613852845348525
1813 80 18186521016128919260
19141452 34 18339931407161088769
193927 3 17846226531240345190
200 152 17704068477982622896
20723712 36 13254799078826155048
22620623 9 18043810879565336956
23227448 37 7853562505220309019
23379529 103 18263089975380178595
23402539 116 17749387036276853120
23557571 272 18335686222646621180
23559900 14 18201423810139033937
23566358 2 16880778519194849841
2748010 2 16589727874617901481
2838139 119 11963383063746728311
2871803 45 18409725140911267054
33382 64 18130792290860530059
3472631 163 11314843810369775731
392239 28 16199563850335640082
394222 165 14977688826885229026
4280585 95 18186513311368643916
46194498 28 17823698766590364007
463206 1 18116434743656083426
465052 167 16056308535791342109
5104073 3 17846216597366131426
56616090 13 11458717131039529206

> <PUBCHEM_SHAPE_MULTIPOLES>
448.16
10.02
2.75
2.11
1.85
1.8
-1.31
-6.06
6.3
0.06
0.86
-0.73
-1.16
0.58

> <PUBCHEM_SHAPE_SELFOVERLAP>
915.554

> <PUBCHEM_SHAPE_VOLUME>
265.4

> <PUBCHEM_COORDINATE_TYPE>
2
5
10

$$$$
