69382
  -OEChem-09111623343D

 32 31  0     1  0  0  0  0  0999 V2000
   -0.2694   -0.9869   -0.0840 S   0  0  0  0  0  0  0  0  0  0  0  0
    0.2668    0.9969   -0.0768 S   0  0  0  0  0  0  0  0  0  0  0  0
   -4.2062    1.7701    0.8165 O   0  0  0  0  0  0  0  0  0  0  0  0
    4.2000   -1.7758    0.8100 O   0  0  0  0  0  0  0  0  0  0  0  0
   -5.8340    0.2131    0.5625 O   0  0  0  0  0  0  0  0  0  0  0  0
    5.8329   -0.2231    0.5630 O   0  0  0  0  0  0  0  0  0  0  0  0
   -4.1101   -1.7865    0.1661 N   0  0  0  0  0  0  0  0  0  0  0  0
    4.1156    1.7836    0.1733 N   0  0  0  0  0  0  0  0  0  0  0  0
   -2.7593   -0.1060   -0.9918 C   0  0  0  0  0  0  0  0  0  0  0  0
    2.7603    0.1117   -0.9919 C   0  0  0  0  0  0  0  0  0  0  0  0
   -3.5053   -0.4578    0.3033 C   0  0  1  0  0  0  0  0  0  0  0  0
    3.5066    0.4561    0.3051 C   0  0  1  0  0  0  0  0  0  0  0  0
   -1.5737   -1.0119   -1.3374 C   0  0  0  0  0  0  0  0  0  0  0  0
    1.5777    1.0226   -1.3348 C   0  0  0  0  0  0  0  0  0  0  0  0
   -4.6460    0.5111    0.5590 C   0  0  0  0  0  0  0  0  0  0  0  0
    4.6440   -0.5173    0.5577 C   0  0  0  0  0  0  0  0  0  0  0  0
   -2.4460    0.9443   -0.9676 H   0  0  0  0  0  0  0  0  0  0  0  0
   -3.4670   -0.1523   -1.8326 H   0  0  0  0  0  0  0  0  0  0  0  0
    3.4698    0.1616   -1.8310 H   0  0  0  0  0  0  0  0  0  0  0  0
    2.4446   -0.9378   -0.9732 H   0  0  0  0  0  0  0  0  0  0  0  0
   -2.8532   -0.4486    1.1817 H   0  0  0  0  0  0  0  0  0  0  0  0
    2.8550    0.4419    1.1842 H   0  0  0  0  0  0  0  0  0  0  0  0
   -1.1453   -0.7134   -2.3005 H   0  0  0  0  0  0  0  0  0  0  0  0
   -1.9079   -2.0478   -1.4556 H   0  0  0  0  0  0  0  0  0  0  0  0
    1.1451    0.7207   -2.2952 H   0  0  0  0  0  0  0  0  0  0  0  0
    1.9064    2.0586   -1.4616 H   0  0  0  0  0  0  0  0  0  0  0  0
   -4.7636   -1.7972   -0.6160 H   0  0  0  0  0  0  0  0  0  0  0  0
   -4.6496   -2.0103    1.0013 H   0  0  0  0  0  0  0  0  0  0  0  0
    4.6180    2.0132    1.0307 H   0  0  0  0  0  0  0  0  0  0  0  0
    3.3870    2.4904    0.0855 H   0  0  0  0  0  0  0  0  0  0  0  0
   -4.9479    2.3878    0.9916 H   0  0  0  0  0  0  0  0  0  0  0  0
    4.9396   -2.3966    0.9832 H   0  0  0  0  0  0  0  0  0  0  0  0
  1  2  1  0  0  0  0
  1 13  1  0  0  0  0
  2 14  1  0  0  0  0
  3 15  1  0  0  0  0
  3 31  1  0  0  0  0
  4 16  1  0  0  0  0
  4 32  1  0  0  0  0
  5 15  2  0  0  0  0
  6 16  2  0  0  0  0
  7 11  1  0  0  0  0
  7 27  1  0  0  0  0
  7 28  1  0  0  0  0
  8 12  1  0  0  0  0
  8 29  1  0  0  0  0
  8 30  1  0  0  0  0
  9 11  1  0  0  0  0
  9 13  1  0  0  0  0
  9 17  1  0  0  0  0
  9 18  1  0  0  0  0
 10 12  1  0  0  0  0
 10 14  1  0  0  0  0
 10 19  1  0  0  0  0
 10 20  1  0  0  0  0
 11 15  1  0  0  0  0
 11 21  1  0  0  0  0
 12 16  1  0  0  0  0
 12 22  1  0  0  0  0
 13 23  1  0  0  0  0
 13 24  1  0  0  0  0
 14 25  1  0  0  0  0
 14 26  1  0  0  0  0
M  END
> <PUBCHEM_COMPOUND_CID>
69382

> <PUBCHEM_CONFORMER_RMSD>
0.8

> <PUBCHEM_CONFORMER_DIVERSEORDER>
1
327
245
281
183
86
226
451
132
369
178
300
194
166
217
17
255
41
110
287
172
141
373
242
71
439
306
149
164
460
87
165
81
65
321
408
59
69
231
396
192
161
2
317
9
134
385
185
452
233
351
151
445
330
135
270
42
78
133
156
402
116
292
267
312
434
214
101
399
423
54
234
315
404
171
30
57
236
304
239
200
195
358
145
269
401
256
419
303
175
53
40
180
313
56
162
244
365
82
442
428
94
341
93
320
22
310
199
280
157
461
371
138
150
302
405
316
355
354
252
128
286
120
414
103
275
426
263
298
311
333
43
122
33
213
4
177
394
235
335
422
117
26
8
248
397
190
221
181
49
121
206
220
274
262
46
381
143
382
453
123
237
140
58
209
326
305
176
403
90
97
307
182
297
398
219
159
443
413
347
372
170
70
173
437
456
37
92
210
344
109
193
415
430
420
336
367
167
285
80
360
154
136
393
343
319
291
440
25
395
364
225
388
218
384
332
378
349
160
299
407
10
282
198
189
338
406
152
64
155
20
98
370
191
89
61
424
47
425
400
243
32
357
457
266
125
146
241
278
74
258
24
184
28
301
411
229
29
387
13
410
63
264
409
392
389
247
458
465
5
240
34
446
353
318
169
308
294
174
250
412
23
147
111
204
356
295
142
179
261
283
224
309
44
427
339
254
124
260
289
268
99
433
76
375
51
288
345
328
144
421
27
459
259
102
187
417
359
368
257
449
168
429
18
196
277
337
331
186
137
106
113
153
91
130
379
45
293
232
416
215
216
21
107
444
158
463
83
462
284
296
66
197
340
148
73
435
203
325
265
361
52
108
432
112
95
447
131
391
376
334
139
100
60
454
386
201
207
188
126
450
380
390
163
271
62
377
383
290
67
366
48
104
212
441
35
50
464
227
127
418
276
19
16
129
350
39
105
223
352
114
7
3
85
75
448
205
346
322
431
202
208
96
88
77
374
251
84
436
249
324
348
323
438
115
14
118
31
329
119
11
12
72
363
222
279
79
246
211
342
362
6
55
253
230
238
272
36
455
38
68
314
273
15
228

> <PUBCHEM_MMFF94_PARTIAL_CHARGES>
20
1 -0.23
11 0.33
12 0.33
13 0.23
14 0.23
15 0.66
16 0.66
2 -0.23
27 0.36
28 0.36
29 0.36
3 -0.65
30 0.36
31 0.5
32 0.5
4 -0.65
5 -0.57
6 -0.57
7 -0.99
8 -0.99

> <PUBCHEM_EFFECTIVE_ROTOR_COUNT>
9

> <PUBCHEM_PHARMACOPHORE_FEATURES>
12
1 3 acceptor
1 4 acceptor
1 5 acceptor
1 6 acceptor
1 7 cation
1 7 donor
1 8 cation
1 8 donor
3 1 9 13 hydrophobe
3 2 10 14 hydrophobe
3 3 5 15 anion
3 4 6 16 anion

> <PUBCHEM_HEAVY_ATOM_COUNT>
16

> <PUBCHEM_ATOM_DEF_STEREO_COUNT>
1

> <PUBCHEM_ATOM_UDEF_STEREO_COUNT>
1

> <PUBCHEM_BOND_DEF_STEREO_COUNT>
0

> <PUBCHEM_BOND_UDEF_STEREO_COUNT>
0

> <PUBCHEM_ISOTOPIC_ATOM_COUNT>
0

> <PUBCHEM_COMPONENT_COUNT>
1

> <PUBCHEM_CACTVS_TAUTO_COUNT>
1

> <PUBCHEM_CONFORMER_ID>
00010F0600000001

> <PUBCHEM_MMFF94_ENERGY>
6.6245

> <PUBCHEM_FEATURE_SELFOVERLAP>
61.014

> <PUBCHEM_SHAPE_FINGERPRINT>
11128504 68 8070021173189605254
117890 112 16630528423030179096
12596602 18 18338799017141482704
13675066 3 18410575097547981031
14251718 22 11097859592362440270
14251732 14 12468651503266076385
14251758 9 18338798909767287271
14251764 18 18410855494487900199
14251764 30 15719393923354469378
14252887 29 17458336455949808140
14455015 7 16298386846625823482
15375358 24 15841556283665851629
17834076 25 14979959172336023030
19784866 9 18412827949866296971
20645477 56 16917349255619434487
20871999 31 8502655900601407109
212916 134 17131825456525964543
21315764 268 18342170081555139833
23402539 116 17346873459866893997
23402655 69 9583528628769898190
23559900 14 16343434959577329540
23590187 156 17131829876864567335
2916195 48 16415478238436414547
328317 168 12967128315432948524
42 15 18333448755127584262
5104073 3 18338799021441711923
573450 72 18201995564421763199

> <PUBCHEM_SHAPE_MULTIPOLES>
303.53
13.32
1.59
1.12
0.01
0
-0.32
0.03
4.95
-0.01
0.19
0
0
-1.01

> <PUBCHEM_SHAPE_SELFOVERLAP>
553.36

> <PUBCHEM_SHAPE_VOLUME>
194

> <PUBCHEM_COORDINATE_TYPE>
2
5
10

$$$$
