189028
  -OEChem-09111620223D

 19 18  0     1  0  0  0  0  0999 V2000
    1.2300    0.8927   -1.0951 O   0  0  0  0  0  0  0  0  0  0  0  0
   -2.7421   -0.4775    0.4600 O   0  0  0  0  0  0  0  0  0  0  0  0
   -1.1593   -1.4469   -0.8461 O   0  0  0  0  0  0  0  0  0  0  0  0
   -0.5635    0.5019    0.4782 C   0  0  1  0  0  0  0  0  0  0  0  0
    0.8634    0.3535   -0.0512 C   0  0  0  0  0  0  0  0  0  0  0  0
    1.7913   -0.5267    0.7730 C   0  0  0  0  0  0  0  0  0  0  0  0
   -1.1273    1.8775    0.1321 C   0  0  0  0  0  0  0  0  0  0  0  0
   -1.4872   -0.5776   -0.0490 C   0  0  0  0  0  0  0  0  0  0  0  0
    3.1946   -0.5968    0.1980 C   0  0  0  0  0  0  0  0  0  0  0  0
   -0.5181    0.4039    1.5696 H   0  0  0  0  0  0  0  0  0  0  0  0
    1.3615   -1.5326    0.8171 H   0  0  0  0  0  0  0  0  0  0  0  0
    1.8364   -0.1189    1.7883 H   0  0  0  0  0  0  0  0  0  0  0  0
   -2.0818    2.0549    0.6388 H   0  0  0  0  0  0  0  0  0  0  0  0
   -0.4351    2.6712    0.4332 H   0  0  0  0  0  0  0  0  0  0  0  0
   -1.3022    1.9769   -0.9453 H   0  0  0  0  0  0  0  0  0  0  0  0
    3.8309   -1.2318    0.8220 H   0  0  0  0  0  0  0  0  0  0  0  0
    3.1841   -1.0133   -0.8147 H   0  0  0  0  0  0  0  0  0  0  0  0
    3.6489    0.3982    0.1468 H   0  0  0  0  0  0  0  0  0  0  0  0
   -3.3346   -1.1778    0.1123 H   0  0  0  0  0  0  0  0  0  0  0  0
  1  5  2  0  0  0  0
  2  8  1  0  0  0  0
  2 19  1  0  0  0  0
  3  8  2  0  0  0  0
  4  5  1  0  0  0  0
  4  7  1  0  0  0  0
  4  8  1  0  0  0  0
  4 10  1  0  0  0  0
  5  6  1  0  0  0  0
  6  9  1  0  0  0  0
  6 11  1  0  0  0  0
  6 12  1  0  0  0  0
  7 13  1  0  0  0  0
  7 14  1  0  0  0  0
  7 15  1  0  0  0  0
  9 16  1  0  0  0  0
  9 17  1  0  0  0  0
  9 18  1  0  0  0  0
M  END
> <PUBCHEM_COMPOUND_CID>
189028

> <PUBCHEM_CONFORMER_RMSD>
0.6

> <PUBCHEM_CONFORMER_DIVERSEORDER>
1
25
23
8
14
11
31
34
19
26
24
15
29
30
33
2
28
17
36
22
9
16
12
5
6
10
35
27
32
20
13
18
3
4
21
7

> <PUBCHEM_MMFF94_PARTIAL_CHARGES>
8
1 -0.57
19 0.5
2 -0.65
3 -0.57
4 0.12
5 0.45
6 0.06
8 0.66

> <PUBCHEM_EFFECTIVE_ROTOR_COUNT>
3

> <PUBCHEM_PHARMACOPHORE_FEATURES>
7
1 1 acceptor
1 2 acceptor
1 3 acceptor
1 4 anion
1 7 hydrophobe
1 9 hydrophobe
3 2 3 8 anion

> <PUBCHEM_HEAVY_ATOM_COUNT>
9

> <PUBCHEM_ATOM_DEF_STEREO_COUNT>
0

> <PUBCHEM_ATOM_UDEF_STEREO_COUNT>
1

> <PUBCHEM_BOND_DEF_STEREO_COUNT>
0

> <PUBCHEM_BOND_UDEF_STEREO_COUNT>
0

> <PUBCHEM_ISOTOPIC_ATOM_COUNT>
0

> <PUBCHEM_COMPONENT_COUNT>
1

> <PUBCHEM_CACTVS_TAUTO_COUNT>
5

> <PUBCHEM_CONFORMER_ID>
0002E26400000001

> <PUBCHEM_MMFF94_ENERGY>
7.2677

> <PUBCHEM_FEATURE_SELFOVERLAP>
35.832

> <PUBCHEM_SHAPE_FINGERPRINT>
12897270 3 11891340828769930570
137420 1 11245387831844889337
14128692 85 18262518207805605262
15310529 11 17895198860671870797
18185500 45 18266175213291190711
20871998 184 18271806778699288159
21040471 1 17981051807960289457
23211744 25 16967754433137951037
23552423 10 18187083991909750560
29004967 10 17385717015269058432
369184 2 17274531057894200178

> <PUBCHEM_SHAPE_MULTIPOLES>
167.61
3.7
1.44
0.88
1.87
0.37
-0.09
-1.02
0.49
-0.75
-0.18
0.11
-0.01
-0.3

> <PUBCHEM_SHAPE_SELFOVERLAP>
315.666

> <PUBCHEM_SHAPE_VOLUME>
104.4

> <PUBCHEM_COORDINATE_TYPE>
2
5
10

$$$$
