4455
  -OEChem-09121600513D

 29 30  0     1  0  0  0  0  0999 V2000
   -2.6070   -0.5376   -2.0503 O   0  0  0  0  0  0  0  0  0  0  0  0
   -3.5305    1.1993    1.0450 O   0  0  0  0  0  0  0  0  0  0  0  0
   -3.9960   -1.3900    1.9179 O   0  0  0  0  0  0  0  0  0  0  0  0
    1.4240   -2.4837   -0.5680 O   0  0  0  0  0  0  0  0  0  0  0  0
   -0.2860   -0.4335   -0.6369 N   0  0  0  0  0  0  0  0  0  0  0  0
    0.6887    2.1089    0.0483 N   0  0  0  0  0  0  0  0  0  0  0  0
    2.8467    1.1205    0.4160 N   0  0  0  0  0  0  0  0  0  0  0  0
    3.2174   -1.2117    0.1029 N   0  0  0  0  0  0  0  0  0  0  0  0
    4.9321    0.2359    0.7836 N   0  0  0  0  0  0  0  0  0  0  0  0
   -2.5010    0.4727   -1.0324 C   0  0  1  0  0  0  0  0  0  0  0  0
   -3.4723    0.1106    0.1209 C   0  0  1  0  0  0  0  0  0  0  0  0
   -1.0754    0.6563   -0.6443 C   0  0  0  0  0  0  0  0  0  0  0  0
   -3.0646   -1.1578    0.8656 C   0  0  0  0  0  0  0  0  0  0  0  0
    0.9961   -0.2175   -0.2794 C   0  0  0  0  0  0  0  0  0  0  0  0
   -0.5972    1.9038   -0.3082 C   0  0  0  0  0  0  0  0  0  0  0  0
    1.4974    1.0279    0.0624 C   0  0  0  0  0  0  0  0  0  0  0  0
    1.8945   -1.3932   -0.2592 C   0  0  0  0  0  0  0  0  0  0  0  0
    3.6331   -0.0106    0.4160 C   0  0  0  0  0  0  0  0  0  0  0  0
   -2.8481    1.4031   -1.5003 H   0  0  0  0  0  0  0  0  0  0  0  0
   -4.4869   -0.0293   -0.2718 H   0  0  0  0  0  0  0  0  0  0  0  0
   -2.0820   -1.0618    1.3366 H   0  0  0  0  0  0  0  0  0  0  0  0
   -3.0612   -2.0312    0.2074 H   0  0  0  0  0  0  0  0  0  0  0  0
   -1.2243    2.7878   -0.3094 H   0  0  0  0  0  0  0  0  0  0  0  0
   -3.5386   -0.5768   -2.3264 H   0  0  0  0  0  0  0  0  0  0  0  0
    3.2117    2.0310    0.6656 H   0  0  0  0  0  0  0  0  0  0  0  0
   -3.8260    1.9845    0.5534 H   0  0  0  0  0  0  0  0  0  0  0  0
   -3.9913   -0.6038    2.4904 H   0  0  0  0  0  0  0  0  0  0  0  0
    5.6165   -0.5114    0.8249 H   0  0  0  0  0  0  0  0  0  0  0  0
    5.2455    1.1696    1.0253 H   0  0  0  0  0  0  0  0  0  0  0  0
  1 10  1  0  0  0  0
  1 24  1  0  0  0  0
  2 11  1  0  0  0  0
  2 26  1  0  0  0  0
  3 13  1  0  0  0  0
  3 27  1  0  0  0  0
  4 17  2  0  0  0  0
  5 12  1  0  0  0  0
  5 14  2  0  0  0  0
  6 15  1  0  0  0  0
  6 16  2  0  0  0  0
  7 16  1  0  0  0  0
  7 18  1  0  0  0  0
  7 25  1  0  0  0  0
  8 17  1  0  0  0  0
  8 18  2  0  0  0  0
  9 18  1  0  0  0  0
  9 28  1  0  0  0  0
  9 29  1  0  0  0  0
 10 11  1  0  0  0  0
 10 12  1  0  0  0  0
 10 19  1  0  0  0  0
 11 13  1  0  0  0  0
 11 20  1  0  0  0  0
 12 15  2  0  0  0  0
 13 21  1  0  0  0  0
 13 22  1  0  0  0  0
 14 16  1  0  0  0  0
 14 17  1  0  0  0  0
 15 23  1  0  0  0  0
M  END
> <PUBCHEM_COMPOUND_CID>
4455

> <PUBCHEM_CONFORMER_RMSD>
0.6

> <PUBCHEM_CONFORMER_DIVERSEORDER>
1
27
48
38
45
15
42
14
41
4
39
25
18
16
44
2
20
24
3
37
26
47
40
5
43
11
30
49
13
19
46
35
17
36
31
21
29
22
8
6
23
9
33
32
10
28
12
7
34

> <PUBCHEM_MMFF94_PARTIAL_CHARGES>
25
1 -0.68
10 0.42
11 0.28
12 0.17
13 0.28
14 0.4
15 0.16
16 0.41
17 0.69
18 0.55
2 -0.68
23 0.15
24 0.4
25 0.4
26 0.4
27 0.4
28 0.4
29 0.4
3 -0.68
4 -0.57
5 -0.62
6 -0.62
7 -0.55
8 -0.66
9 -0.85

> <PUBCHEM_EFFECTIVE_ROTOR_COUNT>
3

> <PUBCHEM_PHARMACOPHORE_FEATURES>
14
1 1 acceptor
1 1 donor
1 2 acceptor
1 2 donor
1 3 acceptor
1 3 donor
1 4 acceptor
1 5 acceptor
1 7 donor
1 8 donor
1 9 donor
3 6 7 16 cation
6 5 6 12 14 15 16 rings
6 7 8 14 16 17 18 rings

> <PUBCHEM_HEAVY_ATOM_COUNT>
18

> <PUBCHEM_ATOM_DEF_STEREO_COUNT>
0

> <PUBCHEM_ATOM_UDEF_STEREO_COUNT>
2

> <PUBCHEM_BOND_DEF_STEREO_COUNT>
0

> <PUBCHEM_BOND_UDEF_STEREO_COUNT>
0

> <PUBCHEM_ISOTOPIC_ATOM_COUNT>
0

> <PUBCHEM_COMPONENT_COUNT>
1

> <PUBCHEM_CACTVS_TAUTO_COUNT>
9

> <PUBCHEM_CONFORMER_ID>
0000116700000001

> <PUBCHEM_MMFF94_ENERGY>
50.1268

> <PUBCHEM_FEATURE_SELFOVERLAP>
71.236

> <PUBCHEM_SHAPE_FINGERPRINT>
11132069 177 18201142313570941806
11471102 22 18412268349892174003
12202030 40 17749110015196721367
12251169 10 18272654562731630437
12633257 1 18264509432243794675
13140716 1 18196363939057917632
13214271 11 18410571773528299357
13583140 156 16952778823318189432
14252887 29 18202290182167087662
15209294 21 17489303079432205960
15309172 13 18273207608100298182
15375358 24 18262791874552812565
15375462 189 18202277000717212376
15422964 175 18334868190358542783
16945 1 18412818101527405836
17844478 74 18334011661962819988
19433438 48 17916852595245452518
19784866 170 18340492179365371032
200 152 18130210658411112663
20279233 1 18041274392275923183
20645477 70 18127676154563965478
21256008 23 18341614832282199664
231179 274 11167944658271603020
23402539 116 12324229539157241878
23493267 7 17750214942261715188
23557571 272 16443618017497569621
23559900 14 17968931964908361754
26918003 58 18187077338926469720
2748010 2 18053935161343171372
5104073 3 18267576923867119072
568465 68 18340778138213917267
5902787 121 17821732757826308369
8809292 202 18113903753587328235

> <PUBCHEM_SHAPE_MULTIPOLES>
322.05
7.52
1.93
1.22
1.53
0.16
0.06
1.42
-2.89
0.15
-0.08
-1.42
0.32
0.8

> <PUBCHEM_SHAPE_SELFOVERLAP>
688.09

> <PUBCHEM_SHAPE_VOLUME>
175.8

> <PUBCHEM_COORDINATE_TYPE>
2
5
10

$$$$
