152323
  -OEChem-09121600593D

 28 28  0     0  0  0  0  0  0999 V2000
    1.6769   -1.0162   -1.3323 O   0  0  0  0  0  0  0  0  0  0  0  0
    3.7357    1.5793    0.0461 O   0  0  0  0  0  0  0  0  0  0  0  0
    5.7144    0.4725   -0.0405 O   0  0  0  0  0  0  0  0  0  0  0  0
    2.3407   -0.4857    0.8286 N   0  0  0  0  0  0  0  0  0  0  0  0
   -1.0288   -0.4862   -0.8350 C   0  0  0  0  0  0  0  0  0  0  0  0
    0.0075   -0.3128    0.2738 C   0  0  0  0  0  0  0  0  0  0  0  0
   -2.4150   -0.1318   -0.3626 C   0  0  0  0  0  0  0  0  0  0  0  0
    1.4136   -0.6486   -0.1904 C   0  0  0  0  0  0  0  0  0  0  0  0
   -3.2183   -1.1162    0.1943 C   0  0  0  0  0  0  0  0  0  0  0  0
   -2.8670    1.1735   -0.4919 C   0  0  0  0  0  0  0  0  0  0  0  0
    3.7500   -0.7398    0.6418 C   0  0  0  0  0  0  0  0  0  0  0  0
   -4.5016   -0.7883    0.6315 C   0  0  0  0  0  0  0  0  0  0  0  0
   -4.1504    1.5014   -0.0545 C   0  0  0  0  0  0  0  0  0  0  0  0
   -4.9677    0.5206    0.5071 C   0  0  0  0  0  0  0  0  0  0  0  0
    4.5102    0.4782    0.1840 C   0  0  0  0  0  0  0  0  0  0  0  0
   -1.0177   -1.5197   -1.2058 H   0  0  0  0  0  0  0  0  0  0  0  0
   -0.7651    0.1350   -1.7012 H   0  0  0  0  0  0  0  0  0  0  0  0
   -0.2355   -0.9601    1.1257 H   0  0  0  0  0  0  0  0  0  0  0  0
    0.0068    0.7230    0.6360 H   0  0  0  0  0  0  0  0  0  0  0  0
   -2.8639   -2.1379    0.2973 H   0  0  0  0  0  0  0  0  0  0  0  0
   -2.2375    1.9449   -0.9262 H   0  0  0  0  0  0  0  0  0  0  0  0
    2.0309   -0.1576    1.7388 H   0  0  0  0  0  0  0  0  0  0  0  0
    3.8798   -1.5318   -0.1017 H   0  0  0  0  0  0  0  0  0  0  0  0
    4.1518   -1.0592    1.6075 H   0  0  0  0  0  0  0  0  0  0  0  0
   -5.1379   -1.5519    1.0695 H   0  0  0  0  0  0  0  0  0  0  0  0
   -4.5131    2.5206   -0.1509 H   0  0  0  0  0  0  0  0  0  0  0  0
   -5.9669    0.7759    0.8480 H   0  0  0  0  0  0  0  0  0  0  0  0
    4.2533    2.3575   -0.2519 H   0  0  0  0  0  0  0  0  0  0  0  0
  1  8  2  0  0  0  0
  2 15  1  0  0  0  0
  2 28  1  0  0  0  0
  3 15  2  0  0  0  0
  4  8  1  0  0  0  0
  4 11  1  0  0  0  0
  4 22  1  0  0  0  0
  5  6  1  0  0  0  0
  5  7  1  0  0  0  0
  5 16  1  0  0  0  0
  5 17  1  0  0  0  0
  6  8  1  0  0  0  0
  6 18  1  0  0  0  0
  6 19  1  0  0  0  0
  7  9  2  0  0  0  0
  7 10  1  0  0  0  0
  9 12  1  0  0  0  0
  9 20  1  0  0  0  0
 10 13  2  0  0  0  0
 10 21  1  0  0  0  0
 11 15  1  0  0  0  0
 11 23  1  0  0  0  0
 11 24  1  0  0  0  0
 12 14  2  0  0  0  0
 12 25  1  0  0  0  0
 13 14  1  0  0  0  0
 13 26  1  0  0  0  0
 14 27  1  0  0  0  0
M  END
> <PUBCHEM_COMPOUND_CID>
152323

> <PUBCHEM_CONFORMER_RMSD>
0.8

> <PUBCHEM_CONFORMER_DIVERSEORDER>
1
23
32
12
27
28
20
13
18
5
19
6
15
25
2
31
21
10
7
9
22
11
24
26
30
29
4
14
16
17
3
8

> <PUBCHEM_MMFF94_PARTIAL_CHARGES>
22
1 -0.57
10 -0.15
11 0.36
12 -0.15
13 -0.15
14 -0.15
15 0.66
2 -0.65
20 0.15
21 0.15
22 0.37
25 0.15
26 0.15
27 0.15
28 0.5
3 -0.57
4 -0.73
5 0.14
6 0.06
7 -0.14
8 0.57
9 -0.15

> <PUBCHEM_EFFECTIVE_ROTOR_COUNT>
6

> <PUBCHEM_PHARMACOPHORE_FEATURES>
6
1 1 acceptor
1 2 acceptor
1 3 acceptor
1 4 donor
3 2 3 15 anion
6 7 9 10 12 13 14 rings

> <PUBCHEM_HEAVY_ATOM_COUNT>
15

> <PUBCHEM_ATOM_DEF_STEREO_COUNT>
0

> <PUBCHEM_ATOM_UDEF_STEREO_COUNT>
0

> <PUBCHEM_BOND_DEF_STEREO_COUNT>
0

> <PUBCHEM_BOND_UDEF_STEREO_COUNT>
0

> <PUBCHEM_ISOTOPIC_ATOM_COUNT>
0

> <PUBCHEM_COMPONENT_COUNT>
1

> <PUBCHEM_CACTVS_TAUTO_COUNT>
2

> <PUBCHEM_CONFORMER_ID>
0002530300000001

> <PUBCHEM_MMFF94_ENERGY>
26.7805

> <PUBCHEM_FEATURE_SELFOVERLAP>
30.505

> <PUBCHEM_SHAPE_FINGERPRINT>
10014705 185 18335414630937810853
100836 57 18201722859963267668
10354089 29 18334294275728167704
12107183 9 17539959577162261608
13214271 11 18412260640884774887
13675066 3 17240765030225338367
13897977 58 18409167714486124981
14123238 8 18334294270937243747
1420 363 14418133998367878578
14252887 29 15213295288616437386
14341114 176 18334017168363841000
15501527 16 18343301483045335616
17834076 25 17203609280921670563
17870717 6 9295293880236153193
19784866 170 18341615893112657207
200 152 13190339076187818487
20325693 3 11887953251130887397
20374829 77 7925910374812769639
20432913 95 15140961729570027393
20645477 56 18341895173761902255
20645477 70 17131276744505291382
21652331 79 18409163320392079596
22646028 1 12107509229874491587
22854114 59 17022900142528871722
23402539 116 18260542351108944791
23402655 69 14620521081954201659
23403322 49 8214140759591449645
23557571 272 18410862053013971461
23559900 14 18198061374252286398
26918003 58 13912326776570075429
32948 21 10087646991785530963
3545911 37 18343023285028302014
42 15 17676487220141524514
449060 50 18342459218668337471
4990 188 12823296805810275140
5104073 3 18187925041032544505
542803 24 18273495662956233235
559249 180 10375883956343215229
77779 3 18335419058278829714

> <PUBCHEM_SHAPE_MULTIPOLES>
286.1
12.28
1.32
0.89
7.19
0.33
-0.12
2.96
2.3
-0.49
-0.02
0.02
-0.15
0.2

> <PUBCHEM_SHAPE_SELFOVERLAP>
582.427

> <PUBCHEM_SHAPE_VOLUME>
164.9

> <PUBCHEM_COORDINATE_TYPE>
2
5
10

$$$$
