86957
  -OEChem-09121600063D

 20 20  0     1  0  0  0  0  0999 V2000
    1.7337   -0.0303   -1.8593 O   0  0  0  0  0  0  0  0  0  0  0  0
   -2.6073    2.0579    0.1119 O   0  0  0  0  0  0  0  0  0  0  0  0
    2.2315   -0.3537    1.7024 O   0  0  0  0  0  0  0  0  0  0  0  0
    3.0543    1.1187    0.1891 O   0  0  0  0  0  0  0  0  0  0  0  0
   -0.0003   -0.4793   -0.2765 C   0  0  0  0  0  0  0  0  0  0  0  0
    1.4600   -0.5646   -0.5663 C   0  0  2  0  0  0  0  0  0  0  0  0
   -0.6285    0.7647   -0.2176 C   0  0  0  0  0  0  0  0  0  0  0  0
   -0.7381   -1.6439   -0.0640 C   0  0  0  0  0  0  0  0  0  0  0  0
   -1.9943    0.8441    0.0538 C   0  0  0  0  0  0  0  0  0  0  0  0
   -2.1039   -1.5645    0.2075 C   0  0  0  0  0  0  0  0  0  0  0  0
   -2.7321   -0.3204    0.2663 C   0  0  0  0  0  0  0  0  0  0  0  0
    2.3252    0.1714    0.4528 C   0  0  0  0  0  0  0  0  0  0  0  0
    1.7990   -1.6076   -0.5824 H   0  0  0  0  0  0  0  0  0  0  0  0
   -0.0624    1.6781   -0.3837 H   0  0  0  0  0  0  0  0  0  0  0  0
   -0.2631   -2.6205   -0.1061 H   0  0  0  0  0  0  0  0  0  0  0  0
   -2.6784   -2.4712    0.3732 H   0  0  0  0  0  0  0  0  0  0  0  0
   -3.7967   -0.2722    0.4787 H   0  0  0  0  0  0  0  0  0  0  0  0
    2.6625   -0.2298   -2.0676 H   0  0  0  0  0  0  0  0  0  0  0  0
   -3.5504    1.9255    0.3095 H   0  0  0  0  0  0  0  0  0  0  0  0
    2.8026    0.1221    2.3424 H   0  0  0  0  0  0  0  0  0  0  0  0
  1  6  1  0  0  0  0
  1 18  1  0  0  0  0
  2  9  1  0  0  0  0
  2 19  1  0  0  0  0
  3 12  1  0  0  0  0
  3 20  1  0  0  0  0
  4 12  2  0  0  0  0
  5  6  1  0  0  0  0
  5  7  2  0  0  0  0
  5  8  1  0  0  0  0
  6 12  1  0  0  0  0
  6 13  1  0  0  0  0
  7  9  1  0  0  0  0
  7 14  1  0  0  0  0
  8 10  2  0  0  0  0
  8 15  1  0  0  0  0
  9 11  2  0  0  0  0
 10 11  1  0  0  0  0
 10 16  1  0  0  0  0
 11 17  1  0  0  0  0
M  END
> <PUBCHEM_COMPOUND_CID>
86957

> <PUBCHEM_CONFORMER_RMSD>
0.6

> <PUBCHEM_CONFORMER_DIVERSEORDER>
3
7
6
1
9
10
11
5
8
4
2

> <PUBCHEM_MMFF94_PARTIAL_CHARGES>
19
1 -0.68
10 -0.15
11 -0.15
12 0.66
14 0.15
15 0.15
16 0.15
17 0.15
18 0.4
19 0.45
2 -0.53
20 0.5
3 -0.65
4 -0.57
5 -0.14
6 0.48
7 -0.15
8 -0.15
9 0.08

> <PUBCHEM_EFFECTIVE_ROTOR_COUNT>
2

> <PUBCHEM_PHARMACOPHORE_FEATURES>
7
1 1 acceptor
1 1 donor
1 2 donor
1 3 acceptor
1 4 acceptor
3 3 4 12 anion
6 5 7 8 9 10 11 rings

> <PUBCHEM_HEAVY_ATOM_COUNT>
12

> <PUBCHEM_ATOM_DEF_STEREO_COUNT>
0

> <PUBCHEM_ATOM_UDEF_STEREO_COUNT>
1

> <PUBCHEM_BOND_DEF_STEREO_COUNT>
0

> <PUBCHEM_BOND_UDEF_STEREO_COUNT>
0

> <PUBCHEM_ISOTOPIC_ATOM_COUNT>
0

> <PUBCHEM_COMPONENT_COUNT>
1

> <PUBCHEM_CACTVS_TAUTO_COUNT>
3

> <PUBCHEM_CONFORMER_ID>
000153AD00000003

> <PUBCHEM_MMFF94_ENERGY>
21.7366

> <PUBCHEM_FEATURE_SELFOVERLAP>
35.587

> <PUBCHEM_SHAPE_FINGERPRINT>
10857977 72 18270682090216017459
11031198 65 16558762238333825284
12716758 59 18340779143320900535
12932764 1 17346878970204446182
13764800 53 18341907259604948073
13839132 238 18271811185367492828
15219456 202 17988651787266531798
15310529 11 14764358123784947719
15775835 57 18187646877428405424
16945 1 18337682996092196967
20645464 45 18131918147727944167
20653085 51 16414086166421266017
20871998 184 18200036290694104639
21040471 1 18265342715791175519
22445834 79 17822278055543472690
22802520 49 17844270448367068684
25610 171 18342172301825534281
2748010 2 18193290593837098807
369184 2 17894900850044761603
5084963 1 18129679533511369503
81228 2 18339654433510389043

> <PUBCHEM_SHAPE_MULTIPOLES>
223.48
4.4
1.6
1.08
0.97
0.2
-0.08
1.05
0.75
-1.21
0.05
0.91
-0.1
0.06

> <PUBCHEM_SHAPE_SELFOVERLAP>
467.1

> <PUBCHEM_SHAPE_VOLUME>
126.1

> <PUBCHEM_COORDINATE_TYPE>
2
5
10

$$$$
