14566
  -OEChem-09121600583D

 25 25  0     0  0  0  0  0  0999 V2000
    2.4778    1.0178    0.3817 O   0  0  0  0  0  0  0  0  0  0  0  0
    0.2211   -0.6526   -1.8103 O   0  0  0  0  0  0  0  0  0  0  0  0
    4.3164   -0.3173    0.0194 O   0  0  0  0  0  0  0  0  0  0  0  0
    0.7898   -0.9541    0.4187 N   0  0  0  0  0  0  0  0  0  0  0  0
   -1.4530   -0.2285   -0.2242 C   0  0  0  0  0  0  0  0  0  0  0  0
    2.1534   -1.3414    0.1984 C   0  0  0  0  0  0  0  0  0  0  0  0
   -0.0802   -0.6359   -0.6197 C   0  0  0  0  0  0  0  0  0  0  0  0
   -2.1665    0.6061   -1.0592 C   0  0  0  0  0  0  0  0  0  0  0  0
   -1.9705   -0.6981    0.9652 C   0  0  0  0  0  0  0  0  0  0  0  0
   -3.4557    0.9885   -0.6881 C   0  0  0  0  0  0  0  0  0  0  0  0
   -3.2598   -0.3157    1.3361 C   0  0  0  0  0  0  0  0  0  0  0  0
   -4.0022    0.5276    0.5094 C   0  0  0  0  0  0  0  0  0  0  0  0
    3.1099   -0.1722    0.1872 C   0  0  0  0  0  0  0  0  0  0  0  0
    3.3196    2.1757    0.3851 C   0  0  0  0  0  0  0  0  0  0  0  0
    2.4365   -2.0121    1.0146 H   0  0  0  0  0  0  0  0  0  0  0  0
    2.2334   -1.8625   -0.7604 H   0  0  0  0  0  0  0  0  0  0  0  0
    0.5041   -0.8352    1.3846 H   0  0  0  0  0  0  0  0  0  0  0  0
   -1.7538    0.9779   -1.9922 H   0  0  0  0  0  0  0  0  0  0  0  0
   -1.4393   -1.3820    1.6188 H   0  0  0  0  0  0  0  0  0  0  0  0
   -4.0337    1.6458   -1.3312 H   0  0  0  0  0  0  0  0  0  0  0  0
   -3.6890   -0.6805    2.2648 H   0  0  0  0  0  0  0  0  0  0  0  0
   -5.0066    0.8240    0.7976 H   0  0  0  0  0  0  0  0  0  0  0  0
    2.6889    3.0534    0.5494 H   0  0  0  0  0  0  0  0  0  0  0  0
    3.8229    2.2807   -0.5807 H   0  0  0  0  0  0  0  0  0  0  0  0
    4.0496    2.1107    1.1975 H   0  0  0  0  0  0  0  0  0  0  0  0
  1 13  1  0  0  0  0
  1 14  1  0  0  0  0
  2  7  2  0  0  0  0
  3 13  2  0  0  0  0
  4  6  1  0  0  0  0
  4  7  1  0  0  0  0
  4 17  1  0  0  0  0
  5  7  1  0  0  0  0
  5  8  2  0  0  0  0
  5  9  1  0  0  0  0
  6 13  1  0  0  0  0
  6 15  1  0  0  0  0
  6 16  1  0  0  0  0
  8 10  1  0  0  0  0
  8 18  1  0  0  0  0
  9 11  2  0  0  0  0
  9 19  1  0  0  0  0
 10 12  2  0  0  0  0
 10 20  1  0  0  0  0
 11 12  1  0  0  0  0
 11 21  1  0  0  0  0
 12 22  1  0  0  0  0
 14 23  1  0  0  0  0
 14 24  1  0  0  0  0
 14 25  1  0  0  0  0
M  END
> <PUBCHEM_COMPOUND_CID>
14566

> <PUBCHEM_CONFORMER_RMSD>
0.6

> <PUBCHEM_CONFORMER_DIVERSEORDER>
1
7
14
24
15
23
5
26
17
3
25
4
11
21
22
18
16
20
2
6
19
9
8
13
12
10

> <PUBCHEM_MMFF94_PARTIAL_CHARGES>
20
1 -0.43
10 -0.15
11 -0.15
12 -0.15
13 0.66
14 0.28
17 0.37
18 0.15
19 0.15
2 -0.57
20 0.15
21 0.15
22 0.15
3 -0.57
4 -0.73
5 0.09
6 0.36
7 0.54
8 -0.15
9 -0.15

> <PUBCHEM_EFFECTIVE_ROTOR_COUNT>
5

> <PUBCHEM_PHARMACOPHORE_FEATURES>
4
1 2 acceptor
1 3 acceptor
1 4 donor
6 5 8 9 10 11 12 rings

> <PUBCHEM_HEAVY_ATOM_COUNT>
14

> <PUBCHEM_ATOM_DEF_STEREO_COUNT>
0

> <PUBCHEM_ATOM_UDEF_STEREO_COUNT>
0

> <PUBCHEM_BOND_DEF_STEREO_COUNT>
0

> <PUBCHEM_BOND_UDEF_STEREO_COUNT>
0

> <PUBCHEM_ISOTOPIC_ATOM_COUNT>
0

> <PUBCHEM_COMPONENT_COUNT>
1

> <PUBCHEM_CACTVS_TAUTO_COUNT>
2

> <PUBCHEM_CONFORMER_ID>
000038E600000001

> <PUBCHEM_MMFF94_ENERGY>
32.0535

> <PUBCHEM_FEATURE_SELFOVERLAP>
20.297

> <PUBCHEM_SHAPE_FINGERPRINT>
10366900 7 18113336405486973963
10465860 71 14261353591143024464
10608611 8 18260261923882695149
10857977 72 16805321097759408758
11031198 65 16271934787479743223
11615757 297 18273215296139061811
12251169 10 16950286204091787271
12500047 106 17749104457250746475
12932764 1 18333730208450480518
15375462 189 13118005500114637164
15653759 3 17821728329678200288
15775835 57 18059291071239232144
18175812 5 18186239536904473454
18186145 218 18201441397945227482
19049666 15 17752477659976881167
19107657 47 18342736282423387368
19107657 9 17275393117917910041
20281407 28 11386370356774524503
20528008 55 18040150708619690827
20645464 45 18334300842606569163
20645476 183 17274812567183352383
212916 134 16443890675560737309
21501925 9 16733275628946907291
22169311 14 18040433269932970730
22485316 2 11458427946564847465
22959321 60 18113617919234564824
23402539 116 14692566585928086850
23559900 14 17458905916562213494
2748010 2 15794814752275313471
4990 188 12247678253844358297
84936 182 16019399828859701893
90316 7 15285347397643453733
9882013 296 16878227583714976628

> <PUBCHEM_SHAPE_MULTIPOLES>
265.52
7.76
1.45
1.19
2.26
0.58
-0.24
2.21
1.76
1.15
0.2
-0.66
-0.05
0.84

> <PUBCHEM_SHAPE_SELFOVERLAP>
546.258

> <PUBCHEM_SHAPE_VOLUME>
152.4

> <PUBCHEM_COORDINATE_TYPE>
2
5
10

$$$$
