247732
  -OEChem-09111621573D

 51 54  0     1  0  0  0  0  0999 V2000
   -5.0670    0.0866   -0.7042 O   0  0  0  0  0  0  0  0  0  0  0  0
    4.6943    1.1609   -0.9914 O   0  0  0  0  0  0  0  0  0  0  0  0
   -0.3646    0.4345    0.1129 C   0  0  2  0  0  0  0  0  0  0  0  0
   -1.7759    0.3750    0.8096 C   0  0  2  0  0  0  0  0  0  0  0  0
    0.5105   -0.8166    0.4572 C   0  0  2  0  0  0  0  0  0  0  0  0
    1.8404   -0.6924   -0.2923 C   0  0  1  0  0  0  0  0  0  0  0  0
   -2.4818   -0.9736    0.4421 C   0  0  2  0  0  0  0  0  0  0  0  0
    2.6220    0.5660    0.1364 C   0  0  2  0  0  0  0  0  0  0  0  0
    0.4074    1.7649    0.3395 C   0  0  0  0  0  0  0  0  0  0  0  0
   -0.2170   -2.1192    0.1050 C   0  0  0  0  0  0  0  0  0  0  0  0
    1.8125    1.7850   -0.2916 C   0  0  0  0  0  0  0  0  0  0  0  0
   -1.5992   -2.1966    0.7467 C   0  0  0  0  0  0  0  0  0  0  0  0
   -2.7006    1.5509    0.3809 C   0  0  0  0  0  0  0  0  0  0  0  0
    2.8683   -1.8159   -0.2112 C   0  0  0  0  0  0  0  0  0  0  0  0
   -2.9613   -1.0177   -1.0290 C   0  0  0  0  0  0  0  0  0  0  0  0
   -1.6394    0.4778    2.3513 C   0  0  0  0  0  0  0  0  0  0  0  0
    3.9046    0.2985   -0.6302 C   0  0  0  0  0  0  0  0  0  0  0  0
   -3.1397    1.4972   -1.0809 C   0  0  0  0  0  0  0  0  0  0  0  0
    4.1077   -1.1888   -0.8668 C   0  0  0  0  0  0  0  0  0  0  0  0
   -3.8303    0.1777   -1.4089 C   0  0  2  0  0  0  0  0  0  0  0  0
    3.0089    0.6455    1.6248 C   0  0  0  0  0  0  0  0  0  0  0  0
   -0.5357    0.3926   -0.9717 H   0  0  0  0  0  0  0  0  0  0  0  0
    0.7141   -0.8399    1.5327 H   0  0  0  0  0  0  0  0  0  0  0  0
    1.5902   -0.6019   -1.3639 H   0  0  0  0  0  0  0  0  0  0  0  0
   -3.3812   -1.0693    1.0675 H   0  0  0  0  0  0  0  0  0  0  0  0
    0.4997    1.9717    1.4102 H   0  0  0  0  0  0  0  0  0  0  0  0
   -0.1555    2.6006   -0.0902 H   0  0  0  0  0  0  0  0  0  0  0  0
    0.3727   -2.9786    0.4459 H   0  0  0  0  0  0  0  0  0  0  0  0
   -0.3048   -2.2200   -0.9831 H   0  0  0  0  0  0  0  0  0  0  0  0
    1.7175    1.8127   -1.3851 H   0  0  0  0  0  0  0  0  0  0  0  0
    2.3288    2.7116   -0.0121 H   0  0  0  0  0  0  0  0  0  0  0  0
   -2.1011   -3.1127    0.4116 H   0  0  0  0  0  0  0  0  0  0  0  0
   -1.4823   -2.3017    1.8321 H   0  0  0  0  0  0  0  0  0  0  0  0
   -2.2252    2.5175    0.5803 H   0  0  0  0  0  0  0  0  0  0  0  0
   -3.6042    1.5421    1.0067 H   0  0  0  0  0  0  0  0  0  0  0  0
    2.5531   -2.7151   -0.7495 H   0  0  0  0  0  0  0  0  0  0  0  0
    3.0735   -2.1028    0.8257 H   0  0  0  0  0  0  0  0  0  0  0  0
   -2.1091   -1.0622   -1.7152 H   0  0  0  0  0  0  0  0  0  0  0  0
   -3.5372   -1.9401   -1.1787 H   0  0  0  0  0  0  0  0  0  0  0  0
   -1.2671    1.4609    2.6573 H   0  0  0  0  0  0  0  0  0  0  0  0
   -2.6130    0.3431    2.8376 H   0  0  0  0  0  0  0  0  0  0  0  0
   -0.9678   -0.2739    2.7726 H   0  0  0  0  0  0  0  0  0  0  0  0
   -3.8285    2.3305   -1.2653 H   0  0  0  0  0  0  0  0  0  0  0  0
   -2.2771    1.6431   -1.7401 H   0  0  0  0  0  0  0  0  0  0  0  0
    4.1204   -1.3764   -1.9443 H   0  0  0  0  0  0  0  0  0  0  0  0
    5.0306   -1.5383   -0.3992 H   0  0  0  0  0  0  0  0  0  0  0  0
   -4.0628    0.1341   -2.4787 H   0  0  0  0  0  0  0  0  0  0  0  0
    2.1413    0.6662    2.2894 H   0  0  0  0  0  0  0  0  0  0  0  0
    3.6418   -0.1920    1.9375 H   0  0  0  0  0  0  0  0  0  0  0  0
    3.5879    1.5572    1.8168 H   0  0  0  0  0  0  0  0  0  0  0  0
   -5.6114    0.8478   -0.9682 H   0  0  0  0  0  0  0  0  0  0  0  0
  1 20  1  0  0  0  0
  1 51  1  0  0  0  0
  2 17  2  0  0  0  0
  3  4  1  0  0  0  0
  3  5  1  0  0  0  0
  3  9  1  0  0  0  0
  3 22  1  0  0  0  0
  4  7  1  0  0  0  0
  4 13  1  0  0  0  0
  4 16  1  0  0  0  0
  5  6  1  0  0  0  0
  5 10  1  0  0  0  0
  5 23  1  0  0  0  0
  6  8  1  0  0  0  0
  6 14  1  0  0  0  0
  6 24  1  0  0  0  0
  7 12  1  0  0  0  0
  7 15  1  0  0  0  0
  7 25  1  0  0  0  0
  8 11  1  0  0  0  0
  8 17  1  0  0  0  0
  8 21  1  0  0  0  0
  9 11  1  0  0  0  0
  9 26  1  0  0  0  0
  9 27  1  0  0  0  0
 10 12  1  0  0  0  0
 10 28  1  0  0  0  0
 10 29  1  0  0  0  0
 11 30  1  0  0  0  0
 11 31  1  0  0  0  0
 12 32  1  0  0  0  0
 12 33  1  0  0  0  0
 13 18  1  0  0  0  0
 13 34  1  0  0  0  0
 13 35  1  0  0  0  0
 14 19  1  0  0  0  0
 14 36  1  0  0  0  0
 14 37  1  0  0  0  0
 15 20  1  0  0  0  0
 15 38  1  0  0  0  0
 15 39  1  0  0  0  0
 16 40  1  0  0  0  0
 16 41  1  0  0  0  0
 16 42  1  0  0  0  0
 17 19  1  0  0  0  0
 18 20  1  0  0  0  0
 18 43  1  0  0  0  0
 18 44  1  0  0  0  0
 19 45  1  0  0  0  0
 19 46  1  0  0  0  0
 20 47  1  0  0  0  0
 21 48  1  0  0  0  0
 21 49  1  0  0  0  0
 21 50  1  0  0  0  0
M  END
> <PUBCHEM_COMPOUND_CID>
247732

> <PUBCHEM_CONFORMER_RMSD>
0.6

> <PUBCHEM_CONFORMER_DIVERSEORDER>
1
2

> <PUBCHEM_MMFF94_PARTIAL_CHARGES>
7
1 -0.68
17 0.45
19 0.06
2 -0.57
20 0.28
51 0.4
8 0.06

> <PUBCHEM_EFFECTIVE_ROTOR_COUNT>
2

> <PUBCHEM_PHARMACOPHORE_FEATURES>
7
1 1 acceptor
1 1 donor
1 2 acceptor
5 6 8 14 17 19 rings
6 3 4 5 7 10 12 rings
6 3 5 6 8 9 11 rings
6 4 7 13 15 18 20 rings

> <PUBCHEM_HEAVY_ATOM_COUNT>
21

> <PUBCHEM_ATOM_DEF_STEREO_COUNT>
7

> <PUBCHEM_ATOM_UDEF_STEREO_COUNT>
0

> <PUBCHEM_BOND_DEF_STEREO_COUNT>
0

> <PUBCHEM_BOND_UDEF_STEREO_COUNT>
0

> <PUBCHEM_ISOTOPIC_ATOM_COUNT>
0

> <PUBCHEM_COMPONENT_COUNT>
1

> <PUBCHEM_CACTVS_TAUTO_COUNT>
2

> <PUBCHEM_CONFORMER_ID>
0003C7B400000001

> <PUBCHEM_MMFF94_ENERGY>
67.3101

> <PUBCHEM_FEATURE_SELFOVERLAP>
35.651

> <PUBCHEM_SHAPE_FINGERPRINT>
10366900 7 17846500361486420928
10498660 4 18334300894040610444
11796584 16 15554157130221226221
11961588 58 17603579768245401357
12236239 1 17846504708088302305
12553582 1 18340783567480035432
12592029 89 18114174203836709955
13140716 1 18339929195084029346
13224815 77 18131349730476210570
13571099 22 18413389826109269838
13583140 156 16588029030115220248
14289901 80 14201405996899031568
15163728 17 15720786893503235663
15238133 3 14634863115964077742
15375358 24 18409163338051574464
15788980 27 17312822689099141504
16752209 62 18262231106305958816
16945 1 18268148828083611834
17349148 13 18341597205789177658
1813 80 14261340393214808969
18186145 218 18411412878443300239
18219364 16 18261406537019965051
18981168 100 15069193435865546044
192875 21 18270390607886334042
19862831 5 18412260618829890854
19868273 293 18040431109432558483
200 152 17561080310926700495
20645477 70 18339083688117609102
20871999 31 18410578383198189789
21069387 34 17989208126895967508
221357 26 18412536596839332717
2334 1 18412549816405823586
23402539 116 18270964531955781366
23419403 2 14399808691001931715
23493267 7 17168156593720286720
23557571 272 17532099473709947035
23559900 14 18271239525837775160
25 1 18261386690292549119
2748010 2 18339932596719180858
2838139 119 16227703604127391535
296302 2 17313385642809466404
312423 11 16271654476370533352
3286 77 17274533235922686690
3323516 105 18341320146286591645
4028521 119 18407758136015291279
4280585 95 17195744264180927790
74978 22 18334579074524125872
9709674 26 18340200916021114279

> <PUBCHEM_SHAPE_MULTIPOLES>
420.43
8.09
2.1
1.43
1.25
0.45
-0.51
-0.7
3.37
0.13
-0.03
-0.58
-0.23
0.26

> <PUBCHEM_SHAPE_SELFOVERLAP>
896.412

> <PUBCHEM_SHAPE_VOLUME>
232.3

> <PUBCHEM_COORDINATE_TYPE>
2
5
10

$$$$
